[VMEM] WARNING: physical memory size is smaller than virtual memory size.

*** ChampSim Multicore Out-of-Order Simulator ***
Warmup Instructions: 50000000
Simulation Instructions: 100000000
Number of CPUs: 1
Page size: 4096

Off-chip DRAM Size: 16 GiB Channels: 1 Width: 64-bit Data Rate: 3205 MT/s
Heartbeat CPU 0 instructions: 10000000 cycles: 2940593 heartbeat IPC: 3.401 cumulative IPC: 3.401 (Simulation time: 00 hr 00 min 28 sec)
Heartbeat CPU 0 instructions: 20000002 cycles: 5644349 heartbeat IPC: 3.699 cumulative IPC: 3.543 (Simulation time: 00 hr 00 min 56 sec)
Heartbeat CPU 0 instructions: 30000005 cycles: 8260232 heartbeat IPC: 3.823 cumulative IPC: 3.632 (Simulation time: 00 hr 01 min 24 sec)
Heartbeat CPU 0 instructions: 40000005 cycles: 10847097 heartbeat IPC: 3.866 cumulative IPC: 3.688 (Simulation time: 00 hr 01 min 52 sec)
Warmup finished CPU 0 instructions: 50000001 cycles: 13430339 cumulative IPC: 3.723 (Simulation time: 00 hr 02 min 20 sec)
Warmup complete CPU 0 instructions: 50000001 cycles: 13430339 cumulative IPC: 3.723 (Simulation time: 00 hr 02 min 20 sec)
Heartbeat CPU 0 instructions: 50000006 cycles: 13430340 heartbeat IPC: 3.871 cumulative IPC: 5 (Simulation time: 00 hr 02 min 20 sec)
Heartbeat CPU 0 instructions: 60000007 cycles: 20947341 heartbeat IPC: 1.33 cumulative IPC: 1.33 (Simulation time: 00 hr 02 min 59 sec)
Heartbeat CPU 0 instructions: 70000010 cycles: 28665347 heartbeat IPC: 1.296 cumulative IPC: 1.313 (Simulation time: 00 hr 03 min 38 sec)
Heartbeat CPU 0 instructions: 80000010 cycles: 36260014 heartbeat IPC: 1.317 cumulative IPC: 1.314 (Simulation time: 00 hr 04 min 17 sec)
Heartbeat CPU 0 instructions: 90000013 cycles: 43927540 heartbeat IPC: 1.304 cumulative IPC: 1.312 (Simulation time: 00 hr 04 min 55 sec)
Heartbeat CPU 0 instructions: 100000015 cycles: 51520208 heartbeat IPC: 1.317 cumulative IPC: 1.313 (Simulation time: 00 hr 05 min 33 sec)
Heartbeat CPU 0 instructions: 110000015 cycles: 59208745 heartbeat IPC: 1.301 cumulative IPC: 1.311 (Simulation time: 00 hr 06 min 12 sec)
Heartbeat CPU 0 instructions: 120000016 cycles: 66813996 heartbeat IPC: 1.315 cumulative IPC: 1.311 (Simulation time: 00 hr 06 min 49 sec)
Heartbeat CPU 0 instructions: 130000020 cycles: 74464667 heartbeat IPC: 1.307 cumulative IPC: 1.311 (Simulation time: 00 hr 07 min 28 sec)
Heartbeat CPU 0 instructions: 140000022 cycles: 82053584 heartbeat IPC: 1.318 cumulative IPC: 1.312 (Simulation time: 00 hr 08 min 06 sec)
Simulation finished CPU 0 instructions: 100000001 cycles: 76266470 cumulative IPC: 1.311 (Simulation time: 00 hr 08 min 44 sec)
Simulation complete CPU 0 instructions: 100000001 cycles: 76266470 cumulative IPC: 1.311 (Simulation time: 00 hr 08 min 44 sec)

ChampSim completed all CPUs

=== Simulation ===
CPU 0 runs 445.gobmk-17B.champsimtrace.xz

Region of Interest Statistics

CPU 0 cumulative IPC: 1.311 instructions: 100000001 cycles: 76266470
CPU 0 Branch Prediction Accuracy: 86.27% MPKI: 24.34 Average ROB Occupancy at Mispredict: 17.19
Branch type MPKI
BRANCH_DIRECT_JUMP: 0.02599
BRANCH_INDIRECT: 0
BRANCH_CONDITIONAL: 24.25
BRANCH_DIRECT_CALL: 0.07071
BRANCH_INDIRECT_CALL: 0
BRANCH_RETURN: 1e-05

cpu0->cpu0_STLB TOTAL        ACCESS:       4135 HIT:       4072 MISS:         63 MSHR_MERGE:          0
cpu0->cpu0_STLB LOAD         ACCESS:       4135 HIT:       4072 MISS:         63 MSHR_MERGE:          0
cpu0->cpu0_STLB RFO          ACCESS:          0 HIT:          0 MISS:          0 MSHR_MERGE:          0
cpu0->cpu0_STLB PREFETCH     ACCESS:          0 HIT:          0 MISS:          0 MSHR_MERGE:          0
cpu0->cpu0_STLB WRITE        ACCESS:          0 HIT:          0 MISS:          0 MSHR_MERGE:          0
cpu0->cpu0_STLB TRANSLATION  ACCESS:          0 HIT:          0 MISS:          0 MSHR_MERGE:          0
cpu0->cpu0_STLB PREFETCH REQUESTED:          0 ISSUED:          0 USEFUL:          0 USELESS:          0
cpu0->cpu0_STLB AVERAGE MISS LATENCY: 471.5 cycles
cpu0->cpu0_L2C TOTAL        ACCESS:     354129 HIT:     353263 MISS:        866 MSHR_MERGE:          0
cpu0->cpu0_L2C LOAD         ACCESS:     238732 HIT:     238094 MISS:        638 MSHR_MERGE:          0
cpu0->cpu0_L2C RFO          ACCESS:      52370 HIT:      52241 MISS:        129 MSHR_MERGE:          0
cpu0->cpu0_L2C PREFETCH     ACCESS:          0 HIT:          0 MISS:          0 MSHR_MERGE:          0
cpu0->cpu0_L2C WRITE        ACCESS:      62903 HIT:      62903 MISS:          0 MSHR_MERGE:          0
cpu0->cpu0_L2C TRANSLATION  ACCESS:        124 HIT:         25 MISS:         99 MSHR_MERGE:          0
cpu0->cpu0_L2C PREFETCH REQUESTED:          0 ISSUED:          0 USEFUL:          0 USELESS:          0
cpu0->cpu0_L2C AVERAGE MISS LATENCY: 164 cycles
cpu0->cpu0_L1I TOTAL        ACCESS:   13420872 HIT:   13133100 MISS:     287772 MSHR_MERGE:      71647
cpu0->cpu0_L1I LOAD         ACCESS:   13420872 HIT:   13133100 MISS:     287772 MSHR_MERGE:      71647
cpu0->cpu0_L1I RFO          ACCESS:          0 HIT:          0 MISS:          0 MSHR_MERGE:          0
cpu0->cpu0_L1I PREFETCH     ACCESS:          0 HIT:          0 MISS:          0 MSHR_MERGE:          0
cpu0->cpu0_L1I WRITE        ACCESS:          0 HIT:          0 MISS:          0 MSHR_MERGE:          0
cpu0->cpu0_L1I TRANSLATION  ACCESS:          0 HIT:          0 MISS:          0 MSHR_MERGE:          0
cpu0->cpu0_L1I PREFETCH REQUESTED:          0 ISSUED:          0 USEFUL:          0 USELESS:          0
cpu0->cpu0_L1I AVERAGE MISS LATENCY: 7.067 cycles
cpu0->cpu0_L1D TOTAL        ACCESS:   35322089 HIT:   35174961 MISS:     147128 MSHR_MERGE:      72026
cpu0->cpu0_L1D LOAD         ACCESS:   18922056 HIT:   18892262 MISS:      29794 MSHR_MERGE:       7187
cpu0->cpu0_L1D RFO          ACCESS:          0 HIT:          0 MISS:          0 MSHR_MERGE:          0
cpu0->cpu0_L1D PREFETCH     ACCESS:          0 HIT:          0 MISS:          0 MSHR_MERGE:          0
cpu0->cpu0_L1D WRITE        ACCESS:   16399907 HIT:   16282697 MISS:     117210 MSHR_MERGE:      64839
cpu0->cpu0_L1D TRANSLATION  ACCESS:        126 HIT:          2 MISS:        124 MSHR_MERGE:          0
cpu0->cpu0_L1D PREFETCH REQUESTED:          0 ISSUED:          0 USEFUL:          0 USELESS:          0
cpu0->cpu0_L1D AVERAGE MISS LATENCY: 9.919 cycles
cpu0->cpu0_ITLB TOTAL        ACCESS:   11123999 HIT:   11123999 MISS:          0 MSHR_MERGE:          0
cpu0->cpu0_ITLB LOAD         ACCESS:   11123999 HIT:   11123999 MISS:          0 MSHR_MERGE:          0
cpu0->cpu0_ITLB RFO          ACCESS:          0 HIT:          0 MISS:          0 MSHR_MERGE:          0
cpu0->cpu0_ITLB PREFETCH     ACCESS:          0 HIT:          0 MISS:          0 MSHR_MERGE:          0
cpu0->cpu0_ITLB WRITE        ACCESS:          0 HIT:          0 MISS:          0 MSHR_MERGE:          0
cpu0->cpu0_ITLB TRANSLATION  ACCESS:          0 HIT:          0 MISS:          0 MSHR_MERGE:          0
cpu0->cpu0_ITLB PREFETCH REQUESTED:          0 ISSUED:          0 USEFUL:          0 USELESS:          0
cpu0->cpu0_ITLB AVERAGE MISS LATENCY: - cycles
cpu0->cpu0_DTLB TOTAL        ACCESS:   33847981 HIT:   33841686 MISS:       6295 MSHR_MERGE:       2160
cpu0->cpu0_DTLB LOAD         ACCESS:   33847981 HIT:   33841686 MISS:       6295 MSHR_MERGE:       2160
cpu0->cpu0_DTLB RFO          ACCESS:          0 HIT:          0 MISS:          0 MSHR_MERGE:          0
cpu0->cpu0_DTLB PREFETCH     ACCESS:          0 HIT:          0 MISS:          0 MSHR_MERGE:          0
cpu0->cpu0_DTLB WRITE        ACCESS:          0 HIT:          0 MISS:          0 MSHR_MERGE:          0
cpu0->cpu0_DTLB TRANSLATION  ACCESS:          0 HIT:          0 MISS:          0 MSHR_MERGE:          0
cpu0->cpu0_DTLB PREFETCH REQUESTED:          0 ISSUED:          0 USEFUL:          0 USELESS:          0
cpu0->cpu0_DTLB AVERAGE MISS LATENCY: 12.2 cycles
cpu0->LLC TOTAL        ACCESS:       1075 HIT:        226 MISS:        849 MSHR_MERGE:          0
cpu0->LLC LOAD         ACCESS:        638 HIT:          6 MISS:        632 MSHR_MERGE:          0
cpu0->LLC RFO          ACCESS:        129 HIT:          1 MISS:        128 MSHR_MERGE:          0
cpu0->LLC PREFETCH     ACCESS:          0 HIT:          0 MISS:          0 MSHR_MERGE:          0
cpu0->LLC WRITE        ACCESS:        209 HIT:        209 MISS:          0 MSHR_MERGE:          0
cpu0->LLC TRANSLATION  ACCESS:         99 HIT:         10 MISS:         89 MSHR_MERGE:          0
cpu0->LLC PREFETCH REQUESTED:          0 ISSUED:          0 USEFUL:          0 USELESS:          0
cpu0->LLC AVERAGE MISS LATENCY: 151 cycles

DRAM Statistics

Channel 0 RQ ROW_BUFFER_HIT:          7
  ROW_BUFFER_MISS:        842
  AVG DBUS CONGESTED CYCLE: 2.843
Channel 0 WQ ROW_BUFFER_HIT:          0
  ROW_BUFFER_MISS:          0
  FULL:          0
Channel 0 REFRESHES ISSUED:       6355
