[VMEM] WARNING: physical memory size is smaller than virtual memory size.

*** ChampSim Multicore Out-of-Order Simulator ***
Warmup Instructions: 50000000
Simulation Instructions: 100000000
Number of CPUs: 1
Page size: 4096

Off-chip DRAM Size: 16 GiB Channels: 1 Width: 64-bit Data Rate: 3205 MT/s
Heartbeat CPU 0 instructions: 10000000 cycles: 2940528 heartbeat IPC: 3.401 cumulative IPC: 3.401 (Simulation time: 00 hr 00 min 29 sec)
Heartbeat CPU 0 instructions: 20000002 cycles: 5644209 heartbeat IPC: 3.699 cumulative IPC: 3.543 (Simulation time: 00 hr 00 min 56 sec)
Heartbeat CPU 0 instructions: 30000005 cycles: 8260162 heartbeat IPC: 3.823 cumulative IPC: 3.632 (Simulation time: 00 hr 01 min 26 sec)
Heartbeat CPU 0 instructions: 40000005 cycles: 10847027 heartbeat IPC: 3.866 cumulative IPC: 3.688 (Simulation time: 00 hr 01 min 53 sec)
Warmup finished CPU 0 instructions: 50000001 cycles: 13430269 cumulative IPC: 3.723 (Simulation time: 00 hr 02 min 21 sec)
Warmup complete CPU 0 instructions: 50000001 cycles: 13430269 cumulative IPC: 3.723 (Simulation time: 00 hr 02 min 21 sec)
Heartbeat CPU 0 instructions: 50000006 cycles: 13430270 heartbeat IPC: 3.871 cumulative IPC: 5 (Simulation time: 00 hr 02 min 21 sec)
Heartbeat CPU 0 instructions: 60000007 cycles: 20959649 heartbeat IPC: 1.328 cumulative IPC: 1.328 (Simulation time: 00 hr 03 min 01 sec)
Heartbeat CPU 0 instructions: 70000010 cycles: 28695630 heartbeat IPC: 1.293 cumulative IPC: 1.31 (Simulation time: 00 hr 03 min 41 sec)
Heartbeat CPU 0 instructions: 80000010 cycles: 36303251 heartbeat IPC: 1.314 cumulative IPC: 1.312 (Simulation time: 00 hr 04 min 19 sec)
Heartbeat CPU 0 instructions: 90000013 cycles: 43989661 heartbeat IPC: 1.301 cumulative IPC: 1.309 (Simulation time: 00 hr 04 min 58 sec)
Heartbeat CPU 0 instructions: 100000015 cycles: 51593051 heartbeat IPC: 1.315 cumulative IPC: 1.31 (Simulation time: 00 hr 05 min 37 sec)
Heartbeat CPU 0 instructions: 110000015 cycles: 59291810 heartbeat IPC: 1.299 cumulative IPC: 1.308 (Simulation time: 00 hr 06 min 17 sec)
Heartbeat CPU 0 instructions: 120000016 cycles: 66910909 heartbeat IPC: 1.312 cumulative IPC: 1.309 (Simulation time: 00 hr 06 min 55 sec)
Heartbeat CPU 0 instructions: 130000020 cycles: 74573630 heartbeat IPC: 1.305 cumulative IPC: 1.308 (Simulation time: 00 hr 07 min 32 sec)
Heartbeat CPU 0 instructions: 140000022 cycles: 82175014 heartbeat IPC: 1.316 cumulative IPC: 1.309 (Simulation time: 00 hr 08 min 09 sec)
Simulation finished CPU 0 instructions: 100000001 cycles: 76402643 cumulative IPC: 1.309 (Simulation time: 00 hr 08 min 47 sec)
Simulation complete CPU 0 instructions: 100000001 cycles: 76402643 cumulative IPC: 1.309 (Simulation time: 00 hr 08 min 47 sec)

ChampSim completed all CPUs

=== Simulation ===
CPU 0 runs 445.gobmk-17B.champsimtrace.xz

Region of Interest Statistics

CPU 0 cumulative IPC: 1.309 instructions: 100000001 cycles: 76402643
CPU 0 Branch Prediction Accuracy: 86.27% MPKI: 24.34 Average ROB Occupancy at Mispredict: 17.18
Branch type MPKI
BRANCH_DIRECT_JUMP: 0.02599
BRANCH_INDIRECT: 0
BRANCH_CONDITIONAL: 24.25
BRANCH_DIRECT_CALL: 0.07071
BRANCH_INDIRECT_CALL: 0
BRANCH_RETURN: 1e-05

cpu0->cpu0_STLB TOTAL        ACCESS:       4135 HIT:       4072 MISS:         63 MSHR_MERGE:          0
cpu0->cpu0_STLB LOAD         ACCESS:       4135 HIT:       4072 MISS:         63 MSHR_MERGE:          0
cpu0->cpu0_STLB RFO          ACCESS:          0 HIT:          0 MISS:          0 MSHR_MERGE:          0
cpu0->cpu0_STLB PREFETCH     ACCESS:          0 HIT:          0 MISS:          0 MSHR_MERGE:          0
cpu0->cpu0_STLB WRITE        ACCESS:          0 HIT:          0 MISS:          0 MSHR_MERGE:          0
cpu0->cpu0_STLB TRANSLATION  ACCESS:          0 HIT:          0 MISS:          0 MSHR_MERGE:          0
cpu0->cpu0_STLB PREFETCH REQUESTED:          0 ISSUED:          0 USEFUL:          0 USELESS:          0
cpu0->cpu0_STLB AVERAGE MISS LATENCY: 490.7 cycles
cpu0->cpu0_L2C TOTAL        ACCESS:     354126 HIT:     331341 MISS:      22785 MSHR_MERGE:          0
cpu0->cpu0_L2C LOAD         ACCESS:     238730 HIT:     225034 MISS:      13696 MSHR_MERGE:          0
cpu0->cpu0_L2C RFO          ACCESS:      52371 HIT:      49012 MISS:       3359 MSHR_MERGE:          0
cpu0->cpu0_L2C PREFETCH     ACCESS:          0 HIT:          0 MISS:          0 MSHR_MERGE:          0
cpu0->cpu0_L2C WRITE        ACCESS:      62901 HIT:      57292 MISS:       5609 MSHR_MERGE:          0
cpu0->cpu0_L2C TRANSLATION  ACCESS:        124 HIT:          3 MISS:        121 MSHR_MERGE:          0
cpu0->cpu0_L2C PREFETCH REQUESTED:          0 ISSUED:          0 USEFUL:          0 USELESS:          0
cpu0->cpu0_L2C AVERAGE MISS LATENCY: 18.01 cycles
cpu0->cpu0_L1I TOTAL        ACCESS:   13425955 HIT:   13137834 MISS:     288121 MSHR_MERGE:      71998
cpu0->cpu0_L1I LOAD         ACCESS:   13425955 HIT:   13137834 MISS:     288121 MSHR_MERGE:      71998
cpu0->cpu0_L1I RFO          ACCESS:          0 HIT:          0 MISS:          0 MSHR_MERGE:          0
cpu0->cpu0_L1I PREFETCH     ACCESS:          0 HIT:          0 MISS:          0 MSHR_MERGE:          0
cpu0->cpu0_L1I WRITE        ACCESS:          0 HIT:          0 MISS:          0 MSHR_MERGE:          0
cpu0->cpu0_L1I TRANSLATION  ACCESS:          0 HIT:          0 MISS:          0 MSHR_MERGE:          0
cpu0->cpu0_L1I PREFETCH REQUESTED:          0 ISSUED:          0 USEFUL:          0 USELESS:          0
cpu0->cpu0_L1I AVERAGE MISS LATENCY: 7.833 cycles
cpu0->cpu0_L1D TOTAL        ACCESS:   35324593 HIT:   35171708 MISS:     152885 MSHR_MERGE:      77782
cpu0->cpu0_L1D LOAD         ACCESS:   18923824 HIT:   18893720 MISS:      30104 MSHR_MERGE:       7497
cpu0->cpu0_L1D RFO          ACCESS:          0 HIT:          0 MISS:          0 MSHR_MERGE:          0
cpu0->cpu0_L1D PREFETCH     ACCESS:          0 HIT:          0 MISS:          0 MSHR_MERGE:          0
cpu0->cpu0_L1D WRITE        ACCESS:   16400643 HIT:   16277986 MISS:     122657 MSHR_MERGE:      70285
cpu0->cpu0_L1D TRANSLATION  ACCESS:        126 HIT:          2 MISS:        124 MSHR_MERGE:          0
cpu0->cpu0_L1D PREFETCH REQUESTED:          0 ISSUED:          0 USEFUL:          0 USELESS:          0
cpu0->cpu0_L1D AVERAGE MISS LATENCY: 11.2 cycles
cpu0->cpu0_ITLB TOTAL        ACCESS:   11135165 HIT:   11135165 MISS:          0 MSHR_MERGE:          0
cpu0->cpu0_ITLB LOAD         ACCESS:   11135165 HIT:   11135165 MISS:          0 MSHR_MERGE:          0
cpu0->cpu0_ITLB RFO          ACCESS:          0 HIT:          0 MISS:          0 MSHR_MERGE:          0
cpu0->cpu0_ITLB PREFETCH     ACCESS:          0 HIT:          0 MISS:          0 MSHR_MERGE:          0
cpu0->cpu0_ITLB WRITE        ACCESS:          0 HIT:          0 MISS:          0 MSHR_MERGE:          0
cpu0->cpu0_ITLB TRANSLATION  ACCESS:          0 HIT:          0 MISS:          0 MSHR_MERGE:          0
cpu0->cpu0_ITLB PREFETCH REQUESTED:          0 ISSUED:          0 USEFUL:          0 USELESS:          0
cpu0->cpu0_ITLB AVERAGE MISS LATENCY: - cycles
cpu0->cpu0_DTLB TOTAL        ACCESS:   33851276 HIT:   33844994 MISS:       6282 MSHR_MERGE:       2147
cpu0->cpu0_DTLB LOAD         ACCESS:   33851276 HIT:   33844994 MISS:       6282 MSHR_MERGE:       2147
cpu0->cpu0_DTLB RFO          ACCESS:          0 HIT:          0 MISS:          0 MSHR_MERGE:          0
cpu0->cpu0_DTLB PREFETCH     ACCESS:          0 HIT:          0 MISS:          0 MSHR_MERGE:          0
cpu0->cpu0_DTLB WRITE        ACCESS:          0 HIT:          0 MISS:          0 MSHR_MERGE:          0
cpu0->cpu0_DTLB TRANSLATION  ACCESS:          0 HIT:          0 MISS:          0 MSHR_MERGE:          0
cpu0->cpu0_DTLB PREFETCH REQUESTED:          0 ISSUED:          0 USEFUL:          0 USELESS:          0
cpu0->cpu0_DTLB AVERAGE MISS LATENCY: 12.49 cycles
cpu0->LLC TOTAL        ACCESS:      25737 HIT:      24888 MISS:        849 MSHR_MERGE:          0
cpu0->LLC LOAD         ACCESS:      13696 HIT:      13064 MISS:        632 MSHR_MERGE:          0
cpu0->LLC RFO          ACCESS:       3359 HIT:       3231 MISS:        128 MSHR_MERGE:          0
cpu0->LLC PREFETCH     ACCESS:          0 HIT:          0 MISS:          0 MSHR_MERGE:          0
cpu0->LLC WRITE        ACCESS:       8561 HIT:       8561 MISS:          0 MSHR_MERGE:          0
cpu0->LLC TRANSLATION  ACCESS:        121 HIT:         32 MISS:         89 MSHR_MERGE:          0
cpu0->LLC PREFETCH REQUESTED:          0 ISSUED:          0 USEFUL:          0 USELESS:          0
cpu0->LLC AVERAGE MISS LATENCY: 152.5 cycles

DRAM Statistics

Channel 0 RQ ROW_BUFFER_HIT:          7
  ROW_BUFFER_MISS:        842
  AVG DBUS CONGESTED CYCLE: 2.837
Channel 0 WQ ROW_BUFFER_HIT:          0
  ROW_BUFFER_MISS:          0
  FULL:          0
Channel 0 REFRESHES ISSUED:       6367
