[VMEM] WARNING: physical memory size is smaller than virtual memory size.

*** ChampSim Multicore Out-of-Order Simulator ***
Warmup Instructions: 50000000
Simulation Instructions: 100000000
Number of CPUs: 1
Page size: 4096

Off-chip DRAM Size: 16 GiB Channels: 1 Width: 64-bit Data Rate: 3205 MT/s
Heartbeat CPU 0 instructions: 10000001 cycles: 2536789 heartbeat IPC: 3.942 cumulative IPC: 3.942 (Simulation time: 00 hr 00 min 23 sec)
Heartbeat CPU 0 instructions: 20000003 cycles: 5064849 heartbeat IPC: 3.956 cumulative IPC: 3.949 (Simulation time: 00 hr 00 min 46 sec)
Heartbeat CPU 0 instructions: 30000005 cycles: 7582204 heartbeat IPC: 3.972 cumulative IPC: 3.957 (Simulation time: 00 hr 01 min 08 sec)
Heartbeat CPU 0 instructions: 40000007 cycles: 10097402 heartbeat IPC: 3.976 cumulative IPC: 3.961 (Simulation time: 00 hr 01 min 31 sec)
Warmup finished CPU 0 instructions: 50000003 cycles: 12613319 cumulative IPC: 3.964 (Simulation time: 00 hr 01 min 53 sec)
Warmup complete CPU 0 instructions: 50000003 cycles: 12613319 cumulative IPC: 3.964 (Simulation time: 00 hr 01 min 53 sec)
Heartbeat CPU 0 instructions: 50000007 cycles: 12613320 heartbeat IPC: 3.975 cumulative IPC: 4 (Simulation time: 00 hr 01 min 53 sec)
Heartbeat CPU 0 instructions: 60000008 cycles: 16474047 heartbeat IPC: 2.59 cumulative IPC: 2.59 (Simulation time: 00 hr 02 min 18 sec)
Heartbeat CPU 0 instructions: 70000009 cycles: 20336382 heartbeat IPC: 2.589 cumulative IPC: 2.59 (Simulation time: 00 hr 02 min 42 sec)
Heartbeat CPU 0 instructions: 80000010 cycles: 24200240 heartbeat IPC: 2.588 cumulative IPC: 2.589 (Simulation time: 00 hr 03 min 07 sec)
Heartbeat CPU 0 instructions: 90000011 cycles: 28072793 heartbeat IPC: 2.582 cumulative IPC: 2.587 (Simulation time: 00 hr 03 min 32 sec)
Heartbeat CPU 0 instructions: 100000015 cycles: 31847409 heartbeat IPC: 2.649 cumulative IPC: 2.6 (Simulation time: 00 hr 03 min 56 sec)
Heartbeat CPU 0 instructions: 110000016 cycles: 35545949 heartbeat IPC: 2.704 cumulative IPC: 2.616 (Simulation time: 00 hr 04 min 20 sec)
Heartbeat CPU 0 instructions: 120000017 cycles: 39239479 heartbeat IPC: 2.707 cumulative IPC: 2.629 (Simulation time: 00 hr 04 min 44 sec)
Heartbeat CPU 0 instructions: 130000018 cycles: 42977609 heartbeat IPC: 2.675 cumulative IPC: 2.635 (Simulation time: 00 hr 05 min 08 sec)
Heartbeat CPU 0 instructions: 140000018 cycles: 52815570 heartbeat IPC: 1.016 cumulative IPC: 2.239 (Simulation time: 00 hr 05 min 49 sec)
Simulation finished CPU 0 instructions: 100000003 cycles: 46225990 cumulative IPC: 2.163 (Simulation time: 00 hr 06 min 22 sec)
Simulation complete CPU 0 instructions: 100000003 cycles: 46225990 cumulative IPC: 2.163 (Simulation time: 00 hr 06 min 22 sec)

ChampSim completed all CPUs

=== Simulation ===
CPU 0 runs 625.x264_s-18B.champsimtrace.xz

Region of Interest Statistics

CPU 0 cumulative IPC: 2.163 instructions: 100000003 cycles: 46225990
CPU 0 Branch Prediction Accuracy: 87.37% MPKI: 6.356 Average ROB Occupancy at Mispredict: 62.34
Branch type MPKI
BRANCH_DIRECT_JUMP: 0.00129
BRANCH_INDIRECT: 0.0005
BRANCH_CONDITIONAL: 6.278
BRANCH_DIRECT_CALL: 0.00205
BRANCH_INDIRECT_CALL: 0.01099
BRANCH_RETURN: 0.06297

cpu0->cpu0_STLB TOTAL        ACCESS:      32366 HIT:      31131 MISS:       1235 MSHR_MERGE:          0
cpu0->cpu0_STLB LOAD         ACCESS:      32366 HIT:      31131 MISS:       1235 MSHR_MERGE:          0
cpu0->cpu0_STLB RFO          ACCESS:          0 HIT:          0 MISS:          0 MSHR_MERGE:          0
cpu0->cpu0_STLB PREFETCH     ACCESS:          0 HIT:          0 MISS:          0 MSHR_MERGE:          0
cpu0->cpu0_STLB WRITE        ACCESS:          0 HIT:          0 MISS:          0 MSHR_MERGE:          0
cpu0->cpu0_STLB TRANSLATION  ACCESS:          0 HIT:          0 MISS:          0 MSHR_MERGE:          0
cpu0->cpu0_STLB PREFETCH REQUESTED:          0 ISSUED:          0 USEFUL:          0 USELESS:          0
cpu0->cpu0_STLB AVERAGE MISS LATENCY: 785.2 cycles
cpu0->cpu0_L2C TOTAL        ACCESS:     133433 HIT:      71501 MISS:      61932 MSHR_MERGE:          0
cpu0->cpu0_L2C LOAD         ACCESS:     106601 HIT:      55044 MISS:      51557 MSHR_MERGE:          0
cpu0->cpu0_L2C RFO          ACCESS:       9575 HIT:       1417 MISS:       8158 MSHR_MERGE:          0
cpu0->cpu0_L2C PREFETCH     ACCESS:          0 HIT:          0 MISS:          0 MSHR_MERGE:          0
cpu0->cpu0_L2C WRITE        ACCESS:      15070 HIT:      15001 MISS:         69 MSHR_MERGE:          0
cpu0->cpu0_L2C TRANSLATION  ACCESS:       2187 HIT:         39 MISS:       2148 MSHR_MERGE:          0
cpu0->cpu0_L2C PREFETCH REQUESTED:          0 ISSUED:          0 USEFUL:          0 USELESS:          0
cpu0->cpu0_L2C AVERAGE MISS LATENCY: 178.3 cycles
cpu0->cpu0_L1I TOTAL        ACCESS:    8383225 HIT:    8315620 MISS:      67605 MSHR_MERGE:      24787
cpu0->cpu0_L1I LOAD         ACCESS:    8383225 HIT:    8315620 MISS:      67605 MSHR_MERGE:      24787
cpu0->cpu0_L1I RFO          ACCESS:          0 HIT:          0 MISS:          0 MSHR_MERGE:          0
cpu0->cpu0_L1I PREFETCH     ACCESS:          0 HIT:          0 MISS:          0 MSHR_MERGE:          0
cpu0->cpu0_L1I WRITE        ACCESS:          0 HIT:          0 MISS:          0 MSHR_MERGE:          0
cpu0->cpu0_L1I TRANSLATION  ACCESS:          0 HIT:          0 MISS:          0 MSHR_MERGE:          0
cpu0->cpu0_L1I PREFETCH REQUESTED:          0 ISSUED:          0 USEFUL:          0 USELESS:          0
cpu0->cpu0_L1I AVERAGE MISS LATENCY: 13.75 cycles
cpu0->cpu0_L1D TOTAL        ACCESS:   21226298 HIT:   21061276 MISS:     165022 MSHR_MERGE:      89476
cpu0->cpu0_L1D LOAD         ACCESS:   14658767 HIT:   14543733 MISS:     115034 MSHR_MERGE:      51251
cpu0->cpu0_L1D RFO          ACCESS:          0 HIT:          0 MISS:          0 MSHR_MERGE:          0
cpu0->cpu0_L1D PREFETCH     ACCESS:          0 HIT:          0 MISS:          0 MSHR_MERGE:          0
cpu0->cpu0_L1D WRITE        ACCESS:    6565034 HIT:    6517312 MISS:      47722 MSHR_MERGE:      38146
cpu0->cpu0_L1D TRANSLATION  ACCESS:       2497 HIT:        231 MISS:       2266 MSHR_MERGE:         79
cpu0->cpu0_L1D PREFETCH REQUESTED:          0 ISSUED:          0 USEFUL:          0 USELESS:          0
cpu0->cpu0_L1D AVERAGE MISS LATENCY: 151.2 cycles
cpu0->cpu0_ITLB TOTAL        ACCESS:    7522289 HIT:    7521243 MISS:       1046 MSHR_MERGE:        694
cpu0->cpu0_ITLB LOAD         ACCESS:    7522289 HIT:    7521243 MISS:       1046 MSHR_MERGE:        694
cpu0->cpu0_ITLB RFO          ACCESS:          0 HIT:          0 MISS:          0 MSHR_MERGE:          0
cpu0->cpu0_ITLB PREFETCH     ACCESS:          0 HIT:          0 MISS:          0 MSHR_MERGE:          0
cpu0->cpu0_ITLB WRITE        ACCESS:          0 HIT:          0 MISS:          0 MSHR_MERGE:          0
cpu0->cpu0_ITLB TRANSLATION  ACCESS:          0 HIT:          0 MISS:          0 MSHR_MERGE:          0
cpu0->cpu0_ITLB PREFETCH REQUESTED:          0 ISSUED:          0 USEFUL:          0 USELESS:          0
cpu0->cpu0_ITLB AVERAGE MISS LATENCY: 152.7 cycles
cpu0->cpu0_DTLB TOTAL        ACCESS:   20185362 HIT:   20118895 MISS:      66467 MSHR_MERGE:      34453
cpu0->cpu0_DTLB LOAD         ACCESS:   20185362 HIT:   20118895 MISS:      66467 MSHR_MERGE:      34453
cpu0->cpu0_DTLB RFO          ACCESS:          0 HIT:          0 MISS:          0 MSHR_MERGE:          0
cpu0->cpu0_DTLB PREFETCH     ACCESS:          0 HIT:          0 MISS:          0 MSHR_MERGE:          0
cpu0->cpu0_DTLB WRITE        ACCESS:          0 HIT:          0 MISS:          0 MSHR_MERGE:          0
cpu0->cpu0_DTLB TRANSLATION  ACCESS:          0 HIT:          0 MISS:          0 MSHR_MERGE:          0
cpu0->cpu0_DTLB PREFETCH REQUESTED:          0 ISSUED:          0 USEFUL:          0 USELESS:          0
cpu0->cpu0_DTLB AVERAGE MISS LATENCY: 33.71 cycles
cpu0->LLC TOTAL        ACCESS:      66472 HIT:       7979 MISS:      58493 MSHR_MERGE:          0
cpu0->LLC LOAD         ACCESS:      51557 HIT:       3364 MISS:      48193 MSHR_MERGE:          0
cpu0->LLC RFO          ACCESS:       8158 HIT:         48 MISS:       8110 MSHR_MERGE:          0
cpu0->LLC PREFETCH     ACCESS:          0 HIT:          0 MISS:          0 MSHR_MERGE:          0
cpu0->LLC WRITE        ACCESS:       4609 HIT:       4566 MISS:         43 MSHR_MERGE:          0
cpu0->LLC TRANSLATION  ACCESS:       2148 HIT:          1 MISS:       2147 MSHR_MERGE:          0
cpu0->LLC PREFETCH REQUESTED:          0 ISSUED:          0 USEFUL:          0 USELESS:          0
cpu0->LLC AVERAGE MISS LATENCY: 171.9 cycles

DRAM Statistics

Channel 0 RQ ROW_BUFFER_HIT:       1706
  ROW_BUFFER_MISS:      56744
  AVG DBUS CONGESTED CYCLE: 10.28
Channel 0 WQ ROW_BUFFER_HIT:        469
  ROW_BUFFER_MISS:       1294
  FULL:          0
Channel 0 REFRESHES ISSUED:       3852
