[VMEM] WARNING: physical memory size is smaller than virtual memory size.

*** ChampSim Multicore Out-of-Order Simulator ***
Warmup Instructions: 50000000
Simulation Instructions: 100000000
Number of CPUs: 1
Page size: 4096

Off-chip DRAM Size: 16 GiB Channels: 1 Width: 64-bit Data Rate: 3205 MT/s
Heartbeat CPU 0 instructions: 10000000 cycles: 2940693 heartbeat IPC: 3.401 cumulative IPC: 3.401 (Simulation time: 00 hr 00 min 32 sec)
Heartbeat CPU 0 instructions: 20000002 cycles: 5644389 heartbeat IPC: 3.699 cumulative IPC: 3.543 (Simulation time: 00 hr 01 min 00 sec)
Heartbeat CPU 0 instructions: 30000005 cycles: 8260347 heartbeat IPC: 3.823 cumulative IPC: 3.632 (Simulation time: 00 hr 01 min 26 sec)
Heartbeat CPU 0 instructions: 40000005 cycles: 10847217 heartbeat IPC: 3.866 cumulative IPC: 3.688 (Simulation time: 00 hr 01 min 53 sec)
Warmup finished CPU 0 instructions: 50000001 cycles: 13430459 cumulative IPC: 3.723 (Simulation time: 00 hr 02 min 20 sec)
Warmup complete CPU 0 instructions: 50000001 cycles: 13430459 cumulative IPC: 3.723 (Simulation time: 00 hr 02 min 20 sec)
Heartbeat CPU 0 instructions: 50000006 cycles: 13430460 heartbeat IPC: 3.871 cumulative IPC: 5 (Simulation time: 00 hr 02 min 20 sec)
Heartbeat CPU 0 instructions: 60000007 cycles: 20947836 heartbeat IPC: 1.33 cumulative IPC: 1.33 (Simulation time: 00 hr 02 min 57 sec)
Heartbeat CPU 0 instructions: 70000010 cycles: 28666173 heartbeat IPC: 1.296 cumulative IPC: 1.313 (Simulation time: 00 hr 03 min 35 sec)
Heartbeat CPU 0 instructions: 80000010 cycles: 36261563 heartbeat IPC: 1.317 cumulative IPC: 1.314 (Simulation time: 00 hr 04 min 12 sec)
Heartbeat CPU 0 instructions: 90000013 cycles: 43929626 heartbeat IPC: 1.304 cumulative IPC: 1.312 (Simulation time: 00 hr 04 min 50 sec)
Heartbeat CPU 0 instructions: 100000015 cycles: 51523345 heartbeat IPC: 1.317 cumulative IPC: 1.313 (Simulation time: 00 hr 05 min 28 sec)
Heartbeat CPU 0 instructions: 110000015 cycles: 59212583 heartbeat IPC: 1.301 cumulative IPC: 1.311 (Simulation time: 00 hr 06 min 06 sec)
Heartbeat CPU 0 instructions: 120000016 cycles: 66818771 heartbeat IPC: 1.315 cumulative IPC: 1.311 (Simulation time: 00 hr 06 min 44 sec)
Heartbeat CPU 0 instructions: 130000020 cycles: 74469620 heartbeat IPC: 1.307 cumulative IPC: 1.311 (Simulation time: 00 hr 07 min 22 sec)
Heartbeat CPU 0 instructions: 140000022 cycles: 82060701 heartbeat IPC: 1.317 cumulative IPC: 1.311 (Simulation time: 00 hr 07 min 59 sec)
Simulation finished CPU 0 instructions: 100000001 cycles: 76274497 cumulative IPC: 1.311 (Simulation time: 00 hr 08 min 37 sec)
Simulation complete CPU 0 instructions: 100000001 cycles: 76274497 cumulative IPC: 1.311 (Simulation time: 00 hr 08 min 37 sec)

ChampSim completed all CPUs

=== Simulation ===
CPU 0 runs 445.gobmk-17B.champsimtrace.xz

Region of Interest Statistics

CPU 0 cumulative IPC: 1.311 instructions: 100000001 cycles: 76274497
CPU 0 Branch Prediction Accuracy: 86.27% MPKI: 24.34 Average ROB Occupancy at Mispredict: 17.19
Branch type MPKI
BRANCH_DIRECT_JUMP: 0.02599
BRANCH_INDIRECT: 0
BRANCH_CONDITIONAL: 24.25
BRANCH_DIRECT_CALL: 0.07071
BRANCH_INDIRECT_CALL: 0
BRANCH_RETURN: 1e-05

cpu0->cpu0_STLB TOTAL        ACCESS:       4135 HIT:       4072 MISS:         63 MSHR_MERGE:          0
cpu0->cpu0_STLB LOAD         ACCESS:       4135 HIT:       4072 MISS:         63 MSHR_MERGE:          0
cpu0->cpu0_STLB RFO          ACCESS:          0 HIT:          0 MISS:          0 MSHR_MERGE:          0
cpu0->cpu0_STLB PREFETCH     ACCESS:          0 HIT:          0 MISS:          0 MSHR_MERGE:          0
cpu0->cpu0_STLB WRITE        ACCESS:          0 HIT:          0 MISS:          0 MSHR_MERGE:          0
cpu0->cpu0_STLB TRANSLATION  ACCESS:          0 HIT:          0 MISS:          0 MSHR_MERGE:          0
cpu0->cpu0_STLB PREFETCH REQUESTED:          0 ISSUED:          0 USEFUL:          0 USELESS:          0
cpu0->cpu0_STLB AVERAGE MISS LATENCY: 490.5 cycles
cpu0->cpu0_L2C TOTAL        ACCESS:     354127 HIT:     352299 MISS:       1828 MSHR_MERGE:          0
cpu0->cpu0_L2C LOAD         ACCESS:     238732 HIT:     237514 MISS:       1218 MSHR_MERGE:          0
cpu0->cpu0_L2C RFO          ACCESS:      52370 HIT:      52015 MISS:        355 MSHR_MERGE:          0
cpu0->cpu0_L2C PREFETCH     ACCESS:          0 HIT:          0 MISS:          0 MSHR_MERGE:          0
cpu0->cpu0_L2C WRITE        ACCESS:      62901 HIT:      62767 MISS:        134 MSHR_MERGE:          0
cpu0->cpu0_L2C TRANSLATION  ACCESS:        124 HIT:          3 MISS:        121 MSHR_MERGE:          0
cpu0->cpu0_L2C PREFETCH REQUESTED:          0 ISSUED:          0 USEFUL:          0 USELESS:          0
cpu0->cpu0_L2C AVERAGE MISS LATENCY: 85.21 cycles
cpu0->cpu0_L1I TOTAL        ACCESS:   13420912 HIT:   13133140 MISS:     287772 MSHR_MERGE:      71647
cpu0->cpu0_L1I LOAD         ACCESS:   13420912 HIT:   13133140 MISS:     287772 MSHR_MERGE:      71647
cpu0->cpu0_L1I RFO          ACCESS:          0 HIT:          0 MISS:          0 MSHR_MERGE:          0
cpu0->cpu0_L1I PREFETCH     ACCESS:          0 HIT:          0 MISS:          0 MSHR_MERGE:          0
cpu0->cpu0_L1I WRITE        ACCESS:          0 HIT:          0 MISS:          0 MSHR_MERGE:          0
cpu0->cpu0_L1I TRANSLATION  ACCESS:          0 HIT:          0 MISS:          0 MSHR_MERGE:          0
cpu0->cpu0_L1I PREFETCH REQUESTED:          0 ISSUED:          0 USEFUL:          0 USELESS:          0
cpu0->cpu0_L1I AVERAGE MISS LATENCY: 7.087 cycles
cpu0->cpu0_L1D TOTAL        ACCESS:   35322057 HIT:   35174606 MISS:     147451 MSHR_MERGE:      72349
cpu0->cpu0_L1D LOAD         ACCESS:   18922017 HIT:   18892170 MISS:      29847 MSHR_MERGE:       7240
cpu0->cpu0_L1D RFO          ACCESS:          0 HIT:          0 MISS:          0 MSHR_MERGE:          0
cpu0->cpu0_L1D PREFETCH     ACCESS:          0 HIT:          0 MISS:          0 MSHR_MERGE:          0
cpu0->cpu0_L1D WRITE        ACCESS:   16399914 HIT:   16282434 MISS:     117480 MSHR_MERGE:      65109
cpu0->cpu0_L1D TRANSLATION  ACCESS:        126 HIT:          2 MISS:        124 MSHR_MERGE:          0
cpu0->cpu0_L1D PREFETCH REQUESTED:          0 ISSUED:          0 USEFUL:          0 USELESS:          0
cpu0->cpu0_L1D AVERAGE MISS LATENCY: 10.05 cycles
cpu0->cpu0_ITLB TOTAL        ACCESS:   11124714 HIT:   11124714 MISS:          0 MSHR_MERGE:          0
cpu0->cpu0_ITLB LOAD         ACCESS:   11124714 HIT:   11124714 MISS:          0 MSHR_MERGE:          0
cpu0->cpu0_ITLB RFO          ACCESS:          0 HIT:          0 MISS:          0 MSHR_MERGE:          0
cpu0->cpu0_ITLB PREFETCH     ACCESS:          0 HIT:          0 MISS:          0 MSHR_MERGE:          0
cpu0->cpu0_ITLB WRITE        ACCESS:          0 HIT:          0 MISS:          0 MSHR_MERGE:          0
cpu0->cpu0_ITLB TRANSLATION  ACCESS:          0 HIT:          0 MISS:          0 MSHR_MERGE:          0
cpu0->cpu0_ITLB PREFETCH REQUESTED:          0 ISSUED:          0 USEFUL:          0 USELESS:          0
cpu0->cpu0_ITLB AVERAGE MISS LATENCY: - cycles
cpu0->cpu0_DTLB TOTAL        ACCESS:   33848021 HIT:   33841732 MISS:       6289 MSHR_MERGE:       2154
cpu0->cpu0_DTLB LOAD         ACCESS:   33848021 HIT:   33841732 MISS:       6289 MSHR_MERGE:       2154
cpu0->cpu0_DTLB RFO          ACCESS:          0 HIT:          0 MISS:          0 MSHR_MERGE:          0
cpu0->cpu0_DTLB PREFETCH     ACCESS:          0 HIT:          0 MISS:          0 MSHR_MERGE:          0
cpu0->cpu0_DTLB WRITE        ACCESS:          0 HIT:          0 MISS:          0 MSHR_MERGE:          0
cpu0->cpu0_DTLB TRANSLATION  ACCESS:          0 HIT:          0 MISS:          0 MSHR_MERGE:          0
cpu0->cpu0_DTLB PREFETCH REQUESTED:          0 ISSUED:          0 USEFUL:          0 USELESS:          0
cpu0->cpu0_DTLB AVERAGE MISS LATENCY: 12.49 cycles
cpu0->LLC TOTAL        ACCESS:       2303 HIT:       1453 MISS:        850 MSHR_MERGE:          0
cpu0->LLC LOAD         ACCESS:       1218 HIT:        585 MISS:        633 MSHR_MERGE:          0
cpu0->LLC RFO          ACCESS:        355 HIT:        227 MISS:        128 MSHR_MERGE:          0
cpu0->LLC PREFETCH     ACCESS:          0 HIT:          0 MISS:          0 MSHR_MERGE:          0
cpu0->LLC WRITE        ACCESS:        609 HIT:        609 MISS:          0 MSHR_MERGE:          0
cpu0->LLC TRANSLATION  ACCESS:        121 HIT:         32 MISS:         89 MSHR_MERGE:          0
cpu0->LLC PREFETCH REQUESTED:          0 ISSUED:          0 USEFUL:          0 USELESS:          0
cpu0->LLC AVERAGE MISS LATENCY: 151.7 cycles

DRAM Statistics

Channel 0 RQ ROW_BUFFER_HIT:          7
  ROW_BUFFER_MISS:        843
  AVG DBUS CONGESTED CYCLE: 2.854
Channel 0 WQ ROW_BUFFER_HIT:          0
  ROW_BUFFER_MISS:          0
  FULL:          0
Channel 0 REFRESHES ISSUED:       6356
