[VMEM] WARNING: physical memory size is smaller than virtual memory size.

*** ChampSim Multicore Out-of-Order Simulator ***
Warmup Instructions: 50000000
Simulation Instructions: 100000000
Number of CPUs: 1
Page size: 4096

Off-chip DRAM Size: 16 GiB Channels: 1 Width: 64-bit Data Rate: 3205 MT/s
Heartbeat CPU 0 instructions: 10000000 cycles: 2940673 heartbeat IPC: 3.401 cumulative IPC: 3.401 (Simulation time: 00 hr 00 min 31 sec)
Heartbeat CPU 0 instructions: 20000002 cycles: 5644499 heartbeat IPC: 3.698 cumulative IPC: 3.543 (Simulation time: 00 hr 00 min 58 sec)
Heartbeat CPU 0 instructions: 30000005 cycles: 8260427 heartbeat IPC: 3.823 cumulative IPC: 3.632 (Simulation time: 00 hr 01 min 25 sec)
Heartbeat CPU 0 instructions: 40000005 cycles: 10847287 heartbeat IPC: 3.866 cumulative IPC: 3.688 (Simulation time: 00 hr 01 min 52 sec)
Warmup finished CPU 0 instructions: 50000001 cycles: 13430529 cumulative IPC: 3.723 (Simulation time: 00 hr 02 min 19 sec)
Warmup complete CPU 0 instructions: 50000001 cycles: 13430529 cumulative IPC: 3.723 (Simulation time: 00 hr 02 min 19 sec)
Heartbeat CPU 0 instructions: 50000006 cycles: 13430530 heartbeat IPC: 3.871 cumulative IPC: 5 (Simulation time: 00 hr 02 min 19 sec)
Heartbeat CPU 0 instructions: 60000007 cycles: 20947761 heartbeat IPC: 1.33 cumulative IPC: 1.33 (Simulation time: 00 hr 02 min 57 sec)
Heartbeat CPU 0 instructions: 70000010 cycles: 28665365 heartbeat IPC: 1.296 cumulative IPC: 1.313 (Simulation time: 00 hr 03 min 34 sec)
Heartbeat CPU 0 instructions: 80000010 cycles: 36260014 heartbeat IPC: 1.317 cumulative IPC: 1.314 (Simulation time: 00 hr 04 min 12 sec)
Heartbeat CPU 0 instructions: 90000013 cycles: 43927540 heartbeat IPC: 1.304 cumulative IPC: 1.312 (Simulation time: 00 hr 04 min 49 sec)
Heartbeat CPU 0 instructions: 100000015 cycles: 51520238 heartbeat IPC: 1.317 cumulative IPC: 1.313 (Simulation time: 00 hr 05 min 27 sec)
Heartbeat CPU 0 instructions: 110000015 cycles: 59210485 heartbeat IPC: 1.3 cumulative IPC: 1.311 (Simulation time: 00 hr 06 min 05 sec)
Heartbeat CPU 0 instructions: 120000016 cycles: 66816341 heartbeat IPC: 1.315 cumulative IPC: 1.311 (Simulation time: 00 hr 06 min 44 sec)
Heartbeat CPU 0 instructions: 130000020 cycles: 74466580 heartbeat IPC: 1.307 cumulative IPC: 1.311 (Simulation time: 00 hr 07 min 21 sec)
Heartbeat CPU 0 instructions: 140000022 cycles: 82055836 heartbeat IPC: 1.318 cumulative IPC: 1.311 (Simulation time: 00 hr 07 min 59 sec)
Simulation finished CPU 0 instructions: 100000001 cycles: 76268990 cumulative IPC: 1.311 (Simulation time: 00 hr 08 min 37 sec)
Simulation complete CPU 0 instructions: 100000001 cycles: 76268990 cumulative IPC: 1.311 (Simulation time: 00 hr 08 min 37 sec)

ChampSim completed all CPUs

=== Simulation ===
CPU 0 runs 445.gobmk-17B.champsimtrace.xz

Region of Interest Statistics

CPU 0 cumulative IPC: 1.311 instructions: 100000001 cycles: 76268990
CPU 0 Branch Prediction Accuracy: 86.27% MPKI: 24.34 Average ROB Occupancy at Mispredict: 17.19
Branch type MPKI
BRANCH_DIRECT_JUMP: 0.02599
BRANCH_INDIRECT: 0
BRANCH_CONDITIONAL: 24.25
BRANCH_DIRECT_CALL: 0.07071
BRANCH_INDIRECT_CALL: 0
BRANCH_RETURN: 1e-05

cpu0->cpu0_STLB TOTAL        ACCESS:       4135 HIT:       4072 MISS:         63 MSHR_MERGE:          0
cpu0->cpu0_STLB LOAD         ACCESS:       4135 HIT:       4072 MISS:         63 MSHR_MERGE:          0
cpu0->cpu0_STLB RFO          ACCESS:          0 HIT:          0 MISS:          0 MSHR_MERGE:          0
cpu0->cpu0_STLB PREFETCH     ACCESS:          0 HIT:          0 MISS:          0 MSHR_MERGE:          0
cpu0->cpu0_STLB WRITE        ACCESS:          0 HIT:          0 MISS:          0 MSHR_MERGE:          0
cpu0->cpu0_STLB TRANSLATION  ACCESS:          0 HIT:          0 MISS:          0 MSHR_MERGE:          0
cpu0->cpu0_STLB PREFETCH REQUESTED:          0 ISSUED:          0 USEFUL:          0 USELESS:          0
cpu0->cpu0_STLB AVERAGE MISS LATENCY: 486.1 cycles
cpu0->cpu0_L2C TOTAL        ACCESS:     354129 HIT:     353156 MISS:        973 MSHR_MERGE:          0
cpu0->cpu0_L2C LOAD         ACCESS:     238732 HIT:     238054 MISS:        678 MSHR_MERGE:          0
cpu0->cpu0_L2C RFO          ACCESS:      52370 HIT:      52195 MISS:        175 MSHR_MERGE:          0
cpu0->cpu0_L2C PREFETCH     ACCESS:          0 HIT:          0 MISS:          0 MSHR_MERGE:          0
cpu0->cpu0_L2C WRITE        ACCESS:      62903 HIT:      62903 MISS:          0 MSHR_MERGE:          0
cpu0->cpu0_L2C TRANSLATION  ACCESS:        124 HIT:          4 MISS:        120 MSHR_MERGE:          0
cpu0->cpu0_L2C PREFETCH REQUESTED:          0 ISSUED:          0 USEFUL:          0 USELESS:          0
cpu0->cpu0_L2C AVERAGE MISS LATENCY: 147.9 cycles
cpu0->cpu0_L1I TOTAL        ACCESS:   13420875 HIT:   13133104 MISS:     287771 MSHR_MERGE:      71646
cpu0->cpu0_L1I LOAD         ACCESS:   13420875 HIT:   13133104 MISS:     287771 MSHR_MERGE:      71646
cpu0->cpu0_L1I RFO          ACCESS:          0 HIT:          0 MISS:          0 MSHR_MERGE:          0
cpu0->cpu0_L1I PREFETCH     ACCESS:          0 HIT:          0 MISS:          0 MSHR_MERGE:          0
cpu0->cpu0_L1I WRITE        ACCESS:          0 HIT:          0 MISS:          0 MSHR_MERGE:          0
cpu0->cpu0_L1I TRANSLATION  ACCESS:          0 HIT:          0 MISS:          0 MSHR_MERGE:          0
cpu0->cpu0_L1I PREFETCH REQUESTED:          0 ISSUED:          0 USEFUL:          0 USELESS:          0
cpu0->cpu0_L1I AVERAGE MISS LATENCY: 7.068 cycles
cpu0->cpu0_L1D TOTAL        ACCESS:   35322068 HIT:   35174906 MISS:     147162 MSHR_MERGE:      72060
cpu0->cpu0_L1D LOAD         ACCESS:   18922037 HIT:   18892233 MISS:      29804 MSHR_MERGE:       7197
cpu0->cpu0_L1D RFO          ACCESS:          0 HIT:          0 MISS:          0 MSHR_MERGE:          0
cpu0->cpu0_L1D PREFETCH     ACCESS:          0 HIT:          0 MISS:          0 MSHR_MERGE:          0
cpu0->cpu0_L1D WRITE        ACCESS:   16399905 HIT:   16282671 MISS:     117234 MSHR_MERGE:      64863
cpu0->cpu0_L1D TRANSLATION  ACCESS:        126 HIT:          2 MISS:        124 MSHR_MERGE:          0
cpu0->cpu0_L1D PREFETCH REQUESTED:          0 ISSUED:          0 USEFUL:          0 USELESS:          0
cpu0->cpu0_L1D AVERAGE MISS LATENCY: 9.942 cycles
cpu0->cpu0_ITLB TOTAL        ACCESS:   11124346 HIT:   11124346 MISS:          0 MSHR_MERGE:          0
cpu0->cpu0_ITLB LOAD         ACCESS:   11124346 HIT:   11124346 MISS:          0 MSHR_MERGE:          0
cpu0->cpu0_ITLB RFO          ACCESS:          0 HIT:          0 MISS:          0 MSHR_MERGE:          0
cpu0->cpu0_ITLB PREFETCH     ACCESS:          0 HIT:          0 MISS:          0 MSHR_MERGE:          0
cpu0->cpu0_ITLB WRITE        ACCESS:          0 HIT:          0 MISS:          0 MSHR_MERGE:          0
cpu0->cpu0_ITLB TRANSLATION  ACCESS:          0 HIT:          0 MISS:          0 MSHR_MERGE:          0
cpu0->cpu0_ITLB PREFETCH REQUESTED:          0 ISSUED:          0 USEFUL:          0 USELESS:          0
cpu0->cpu0_ITLB AVERAGE MISS LATENCY: - cycles
cpu0->cpu0_DTLB TOTAL        ACCESS:   33847967 HIT:   33841671 MISS:       6296 MSHR_MERGE:       2161
cpu0->cpu0_DTLB LOAD         ACCESS:   33847967 HIT:   33841671 MISS:       6296 MSHR_MERGE:       2161
cpu0->cpu0_DTLB RFO          ACCESS:          0 HIT:          0 MISS:          0 MSHR_MERGE:          0
cpu0->cpu0_DTLB PREFETCH     ACCESS:          0 HIT:          0 MISS:          0 MSHR_MERGE:          0
cpu0->cpu0_DTLB WRITE        ACCESS:          0 HIT:          0 MISS:          0 MSHR_MERGE:          0
cpu0->cpu0_DTLB TRANSLATION  ACCESS:          0 HIT:          0 MISS:          0 MSHR_MERGE:          0
cpu0->cpu0_DTLB PREFETCH REQUESTED:          0 ISSUED:          0 USEFUL:          0 USELESS:          0
cpu0->cpu0_DTLB AVERAGE MISS LATENCY: 12.42 cycles
cpu0->LLC TOTAL        ACCESS:       1347 HIT:        498 MISS:        849 MSHR_MERGE:          0
cpu0->LLC LOAD         ACCESS:        678 HIT:         46 MISS:        632 MSHR_MERGE:          0
cpu0->LLC RFO          ACCESS:        175 HIT:         47 MISS:        128 MSHR_MERGE:          0
cpu0->LLC PREFETCH     ACCESS:          0 HIT:          0 MISS:          0 MSHR_MERGE:          0
cpu0->LLC WRITE        ACCESS:        374 HIT:        374 MISS:          0 MSHR_MERGE:          0
cpu0->LLC TRANSLATION  ACCESS:        120 HIT:         31 MISS:         89 MSHR_MERGE:          0
cpu0->LLC PREFETCH REQUESTED:          0 ISSUED:          0 USEFUL:          0 USELESS:          0
cpu0->LLC AVERAGE MISS LATENCY: 151.3 cycles

DRAM Statistics

Channel 0 RQ ROW_BUFFER_HIT:          7
  ROW_BUFFER_MISS:        842
  AVG DBUS CONGESTED CYCLE: 2.86
Channel 0 WQ ROW_BUFFER_HIT:          0
  ROW_BUFFER_MISS:          0
  FULL:          0
Channel 0 REFRESHES ISSUED:       6355
