[VMEM] WARNING: physical memory size is smaller than virtual memory size.

*** ChampSim Multicore Out-of-Order Simulator ***
Warmup Instructions: 50000000
Simulation Instructions: 100000000
Number of CPUs: 1
Page size: 4096

Off-chip DRAM Size: 16 GiB Channels: 1 Width: 64-bit Data Rate: 3205 MT/s
Heartbeat CPU 0 instructions: 10000001 cycles: 2536789 heartbeat IPC: 3.942 cumulative IPC: 3.942 (Simulation time: 00 hr 00 min 23 sec)
Heartbeat CPU 0 instructions: 20000003 cycles: 5064849 heartbeat IPC: 3.956 cumulative IPC: 3.949 (Simulation time: 00 hr 00 min 46 sec)
Heartbeat CPU 0 instructions: 30000005 cycles: 7582204 heartbeat IPC: 3.972 cumulative IPC: 3.957 (Simulation time: 00 hr 01 min 08 sec)
Heartbeat CPU 0 instructions: 40000007 cycles: 10097412 heartbeat IPC: 3.976 cumulative IPC: 3.961 (Simulation time: 00 hr 01 min 31 sec)
Warmup finished CPU 0 instructions: 50000003 cycles: 12613329 cumulative IPC: 3.964 (Simulation time: 00 hr 01 min 53 sec)
Warmup complete CPU 0 instructions: 50000003 cycles: 12613329 cumulative IPC: 3.964 (Simulation time: 00 hr 01 min 53 sec)
Heartbeat CPU 0 instructions: 50000007 cycles: 12613330 heartbeat IPC: 3.975 cumulative IPC: 4 (Simulation time: 00 hr 01 min 53 sec)
Heartbeat CPU 0 instructions: 60000008 cycles: 16476380 heartbeat IPC: 2.589 cumulative IPC: 2.589 (Simulation time: 00 hr 02 min 18 sec)
Heartbeat CPU 0 instructions: 70000009 cycles: 20342605 heartbeat IPC: 2.587 cumulative IPC: 2.588 (Simulation time: 00 hr 02 min 43 sec)
Heartbeat CPU 0 instructions: 80000010 cycles: 24205628 heartbeat IPC: 2.589 cumulative IPC: 2.588 (Simulation time: 00 hr 03 min 08 sec)
Heartbeat CPU 0 instructions: 90000011 cycles: 28080273 heartbeat IPC: 2.581 cumulative IPC: 2.586 (Simulation time: 00 hr 03 min 33 sec)
Heartbeat CPU 0 instructions: 100000015 cycles: 31809474 heartbeat IPC: 2.682 cumulative IPC: 2.605 (Simulation time: 00 hr 03 min 57 sec)
Heartbeat CPU 0 instructions: 110000016 cycles: 35377269 heartbeat IPC: 2.803 cumulative IPC: 2.636 (Simulation time: 00 hr 04 min 21 sec)
Heartbeat CPU 0 instructions: 120000017 cycles: 38950942 heartbeat IPC: 2.798 cumulative IPC: 2.658 (Simulation time: 00 hr 04 min 45 sec)
Heartbeat CPU 0 instructions: 130000018 cycles: 42571014 heartbeat IPC: 2.762 cumulative IPC: 2.67 (Simulation time: 00 hr 05 min 10 sec)
Heartbeat CPU 0 instructions: 140000020 cycles: 52348084 heartbeat IPC: 1.023 cumulative IPC: 2.265 (Simulation time: 00 hr 05 min 50 sec)
Simulation finished CPU 0 instructions: 100000003 cycles: 45840650 cumulative IPC: 2.181 (Simulation time: 00 hr 06 min 22 sec)
Simulation complete CPU 0 instructions: 100000003 cycles: 45840650 cumulative IPC: 2.181 (Simulation time: 00 hr 06 min 22 sec)

ChampSim completed all CPUs

=== Simulation ===
CPU 0 runs 625.x264_s-18B.champsimtrace.xz

Region of Interest Statistics

CPU 0 cumulative IPC: 2.181 instructions: 100000003 cycles: 45840650
CPU 0 Branch Prediction Accuracy: 87.37% MPKI: 6.356 Average ROB Occupancy at Mispredict: 62.17
Branch type MPKI
BRANCH_DIRECT_JUMP: 0.00129
BRANCH_INDIRECT: 0.0005
BRANCH_CONDITIONAL: 6.278
BRANCH_DIRECT_CALL: 0.00205
BRANCH_INDIRECT_CALL: 0.01099
BRANCH_RETURN: 0.06297

cpu0->cpu0_STLB TOTAL        ACCESS:      32366 HIT:      31131 MISS:       1235 MSHR_MERGE:          0
cpu0->cpu0_STLB LOAD         ACCESS:      32366 HIT:      31131 MISS:       1235 MSHR_MERGE:          0
cpu0->cpu0_STLB RFO          ACCESS:          0 HIT:          0 MISS:          0 MSHR_MERGE:          0
cpu0->cpu0_STLB PREFETCH     ACCESS:          0 HIT:          0 MISS:          0 MSHR_MERGE:          0
cpu0->cpu0_STLB WRITE        ACCESS:          0 HIT:          0 MISS:          0 MSHR_MERGE:          0
cpu0->cpu0_STLB TRANSLATION  ACCESS:          0 HIT:          0 MISS:          0 MSHR_MERGE:          0
cpu0->cpu0_STLB PREFETCH REQUESTED:          0 ISSUED:          0 USEFUL:          0 USELESS:          0
cpu0->cpu0_STLB AVERAGE MISS LATENCY: 790 cycles
cpu0->cpu0_L2C TOTAL        ACCESS:     133431 HIT:      42968 MISS:      90463 MSHR_MERGE:          0
cpu0->cpu0_L2C LOAD         ACCESS:     106597 HIT:      35786 MISS:      70811 MSHR_MERGE:          0
cpu0->cpu0_L2C RFO          ACCESS:       9577 HIT:       1098 MISS:       8479 MSHR_MERGE:          0
cpu0->cpu0_L2C PREFETCH     ACCESS:          0 HIT:          0 MISS:          0 MSHR_MERGE:          0
cpu0->cpu0_L2C WRITE        ACCESS:      15070 HIT:       6075 MISS:       8995 MSHR_MERGE:          0
cpu0->cpu0_L2C TRANSLATION  ACCESS:       2187 HIT:          9 MISS:       2178 MSHR_MERGE:          0
cpu0->cpu0_L2C PREFETCH REQUESTED:          0 ISSUED:          0 USEFUL:          0 USELESS:          0
cpu0->cpu0_L2C AVERAGE MISS LATENCY: 120.8 cycles
cpu0->cpu0_L1I TOTAL        ACCESS:    8378999 HIT:    8311602 MISS:      67397 MSHR_MERGE:      24584
cpu0->cpu0_L1I LOAD         ACCESS:    8378999 HIT:    8311602 MISS:      67397 MSHR_MERGE:      24584
cpu0->cpu0_L1I RFO          ACCESS:          0 HIT:          0 MISS:          0 MSHR_MERGE:          0
cpu0->cpu0_L1I PREFETCH     ACCESS:          0 HIT:          0 MISS:          0 MSHR_MERGE:          0
cpu0->cpu0_L1I WRITE        ACCESS:          0 HIT:          0 MISS:          0 MSHR_MERGE:          0
cpu0->cpu0_L1I TRANSLATION  ACCESS:          0 HIT:          0 MISS:          0 MSHR_MERGE:          0
cpu0->cpu0_L1I PREFETCH REQUESTED:          0 ISSUED:          0 USEFUL:          0 USELESS:          0
cpu0->cpu0_L1I AVERAGE MISS LATENCY: 20.59 cycles
cpu0->cpu0_L1D TOTAL        ACCESS:   21236199 HIT:   21069246 MISS:     166953 MSHR_MERGE:      91403
cpu0->cpu0_L1D LOAD         ACCESS:   14668670 HIT:   14551820 MISS:     116850 MSHR_MERGE:      53066
cpu0->cpu0_L1D RFO          ACCESS:          0 HIT:          0 MISS:          0 MSHR_MERGE:          0
cpu0->cpu0_L1D PREFETCH     ACCESS:          0 HIT:          0 MISS:          0 MSHR_MERGE:          0
cpu0->cpu0_L1D WRITE        ACCESS:    6565033 HIT:    6517193 MISS:      47840 MSHR_MERGE:      38261
cpu0->cpu0_L1D TRANSLATION  ACCESS:       2496 HIT:        233 MISS:       2263 MSHR_MERGE:         76
cpu0->cpu0_L1D PREFETCH REQUESTED:          0 ISSUED:          0 USEFUL:          0 USELESS:          0
cpu0->cpu0_L1D AVERAGE MISS LATENCY: 145.6 cycles
cpu0->cpu0_ITLB TOTAL        ACCESS:    7517218 HIT:    7516172 MISS:       1046 MSHR_MERGE:        694
cpu0->cpu0_ITLB LOAD         ACCESS:    7517218 HIT:    7516172 MISS:       1046 MSHR_MERGE:        694
cpu0->cpu0_ITLB RFO          ACCESS:          0 HIT:          0 MISS:          0 MSHR_MERGE:          0
cpu0->cpu0_ITLB PREFETCH     ACCESS:          0 HIT:          0 MISS:          0 MSHR_MERGE:          0
cpu0->cpu0_ITLB WRITE        ACCESS:          0 HIT:          0 MISS:          0 MSHR_MERGE:          0
cpu0->cpu0_ITLB TRANSLATION  ACCESS:          0 HIT:          0 MISS:          0 MSHR_MERGE:          0
cpu0->cpu0_ITLB PREFETCH REQUESTED:          0 ISSUED:          0 USEFUL:          0 USELESS:          0
cpu0->cpu0_ITLB AVERAGE MISS LATENCY: 153.7 cycles
cpu0->cpu0_DTLB TOTAL        ACCESS:   20195374 HIT:   20128798 MISS:      66576 MSHR_MERGE:      34562
cpu0->cpu0_DTLB LOAD         ACCESS:   20195374 HIT:   20128798 MISS:      66576 MSHR_MERGE:      34562
cpu0->cpu0_DTLB RFO          ACCESS:          0 HIT:          0 MISS:          0 MSHR_MERGE:          0
cpu0->cpu0_DTLB PREFETCH     ACCESS:          0 HIT:          0 MISS:          0 MSHR_MERGE:          0
cpu0->cpu0_DTLB WRITE        ACCESS:          0 HIT:          0 MISS:          0 MSHR_MERGE:          0
cpu0->cpu0_DTLB TRANSLATION  ACCESS:          0 HIT:          0 MISS:          0 MSHR_MERGE:          0
cpu0->cpu0_DTLB PREFETCH REQUESTED:          0 ISSUED:          0 USEFUL:          0 USELESS:          0
cpu0->cpu0_DTLB AVERAGE MISS LATENCY: 33.88 cycles
cpu0->LLC TOTAL        ACCESS:      89775 HIT:      33710 MISS:      56065 MSHR_MERGE:          0
cpu0->LLC LOAD         ACCESS:      70811 HIT:      25271 MISS:      45540 MSHR_MERGE:          0
cpu0->LLC RFO          ACCESS:       8478 HIT:        368 MISS:       8110 MSHR_MERGE:          0
cpu0->LLC PREFETCH     ACCESS:          0 HIT:          0 MISS:          0 MSHR_MERGE:          0
cpu0->LLC WRITE        ACCESS:       8308 HIT:       8040 MISS:        268 MSHR_MERGE:          0
cpu0->LLC TRANSLATION  ACCESS:       2178 HIT:         31 MISS:       2147 MSHR_MERGE:          0
cpu0->LLC PREFETCH REQUESTED:          0 ISSUED:          0 USEFUL:          0 USELESS:          0
cpu0->LLC AVERAGE MISS LATENCY: 171.5 cycles

DRAM Statistics

Channel 0 RQ ROW_BUFFER_HIT:       1735
  ROW_BUFFER_MISS:      54062
  AVG DBUS CONGESTED CYCLE: 8.863
Channel 0 WQ ROW_BUFFER_HIT:        273
  ROW_BUFFER_MISS:        821
  FULL:          0
Channel 0 REFRESHES ISSUED:       3820
