[VMEM] WARNING: physical memory size is smaller than virtual memory size.

*** ChampSim Multicore Out-of-Order Simulator ***
Warmup Instructions: 50000000
Simulation Instructions: 100000000
Number of CPUs: 1
Page size: 4096

Off-chip DRAM Size: 16 GiB Channels: 1 Width: 64-bit Data Rate: 3205 MT/s
Heartbeat CPU 0 instructions: 10000000 cycles: 2596506 heartbeat IPC: 3.851 cumulative IPC: 3.851 (Simulation time: 00 hr 00 min 22 sec)
Heartbeat CPU 0 instructions: 20000000 cycles: 5232155 heartbeat IPC: 3.794 cumulative IPC: 3.823 (Simulation time: 00 hr 00 min 46 sec)
Heartbeat CPU 0 instructions: 30000000 cycles: 7732416 heartbeat IPC: 4 cumulative IPC: 3.88 (Simulation time: 00 hr 01 min 06 sec)
Heartbeat CPU 0 instructions: 40000004 cycles: 10232702 heartbeat IPC: 4 cumulative IPC: 3.909 (Simulation time: 00 hr 01 min 26 sec)
Warmup finished CPU 0 instructions: 50000002 cycles: 12736266 cumulative IPC: 3.926 (Simulation time: 00 hr 01 min 46 sec)
Warmup complete CPU 0 instructions: 50000002 cycles: 12736266 cumulative IPC: 3.926 (Simulation time: 00 hr 01 min 46 sec)
Heartbeat CPU 0 instructions: 50000007 cycles: 12736267 heartbeat IPC: 3.994 cumulative IPC: 5 (Simulation time: 00 hr 01 min 46 sec)
Heartbeat CPU 0 instructions: 60000007 cycles: 17645571 heartbeat IPC: 2.037 cumulative IPC: 2.037 (Simulation time: 00 hr 02 min 11 sec)
Heartbeat CPU 0 instructions: 70000007 cycles: 22552771 heartbeat IPC: 2.038 cumulative IPC: 2.037 (Simulation time: 00 hr 02 min 36 sec)
Heartbeat CPU 0 instructions: 80000010 cycles: 27467041 heartbeat IPC: 2.035 cumulative IPC: 2.037 (Simulation time: 00 hr 03 min 02 sec)
Heartbeat CPU 0 instructions: 90000012 cycles: 32393139 heartbeat IPC: 2.03 cumulative IPC: 2.035 (Simulation time: 00 hr 03 min 31 sec)
Heartbeat CPU 0 instructions: 100000013 cycles: 37314705 heartbeat IPC: 2.032 cumulative IPC: 2.034 (Simulation time: 00 hr 03 min 57 sec)
Heartbeat CPU 0 instructions: 110000015 cycles: 42219741 heartbeat IPC: 2.039 cumulative IPC: 2.035 (Simulation time: 00 hr 04 min 25 sec)
Heartbeat CPU 0 instructions: 120000018 cycles: 47110255 heartbeat IPC: 2.045 cumulative IPC: 2.036 (Simulation time: 00 hr 04 min 50 sec)
Heartbeat CPU 0 instructions: 130000022 cycles: 51999724 heartbeat IPC: 2.045 cumulative IPC: 2.038 (Simulation time: 00 hr 05 min 14 sec)
Heartbeat CPU 0 instructions: 140000026 cycles: 56889338 heartbeat IPC: 2.045 cumulative IPC: 2.038 (Simulation time: 00 hr 05 min 39 sec)
Simulation finished CPU 0 instructions: 100000001 cycles: 49065034 cumulative IPC: 2.038 (Simulation time: 00 hr 06 min 04 sec)
Simulation complete CPU 0 instructions: 100000001 cycles: 49065034 cumulative IPC: 2.038 (Simulation time: 00 hr 06 min 04 sec)

ChampSim completed all CPUs

=== Simulation ===
CPU 0 runs 603.bwaves_s-1080B.champsimtrace.xz

Region of Interest Statistics

CPU 0 cumulative IPC: 2.038 instructions: 100000001 cycles: 49065034
CPU 0 Branch Prediction Accuracy: 87.05% MPKI: 18.85 Average ROB Occupancy at Mispredict: 32.43
Branch type MPKI
BRANCH_DIRECT_JUMP: 0.145
BRANCH_INDIRECT: 0
BRANCH_CONDITIONAL: 18.62
BRANCH_DIRECT_CALL: 0
BRANCH_INDIRECT_CALL: 0
BRANCH_RETURN: 0.08835

cpu0->cpu0_STLB TOTAL        ACCESS:         49 HIT:          3 MISS:         46 MSHR_MERGE:          0
cpu0->cpu0_STLB LOAD         ACCESS:         49 HIT:          3 MISS:         46 MSHR_MERGE:          0
cpu0->cpu0_STLB RFO          ACCESS:          0 HIT:          0 MISS:          0 MSHR_MERGE:          0
cpu0->cpu0_STLB PREFETCH     ACCESS:          0 HIT:          0 MISS:          0 MSHR_MERGE:          0
cpu0->cpu0_STLB WRITE        ACCESS:          0 HIT:          0 MISS:          0 MSHR_MERGE:          0
cpu0->cpu0_STLB TRANSLATION  ACCESS:          0 HIT:          0 MISS:          0 MSHR_MERGE:          0
cpu0->cpu0_STLB PREFETCH REQUESTED:          0 ISSUED:          0 USEFUL:          0 USELESS:          0
cpu0->cpu0_STLB AVERAGE MISS LATENCY: 704.8 cycles
cpu0->cpu0_L2C TOTAL        ACCESS:       5887 HIT:        354 MISS:       5533 MSHR_MERGE:          0
cpu0->cpu0_L2C LOAD         ACCESS:        313 HIT:         36 MISS:        277 MSHR_MERGE:          0
cpu0->cpu0_L2C RFO          ACCESS:       2759 HIT:         49 MISS:       2710 MSHR_MERGE:          0
cpu0->cpu0_L2C PREFETCH     ACCESS:          0 HIT:          0 MISS:          0 MSHR_MERGE:          0
cpu0->cpu0_L2C WRITE        ACCESS:       2759 HIT:        269 MISS:       2490 MSHR_MERGE:          0
cpu0->cpu0_L2C TRANSLATION  ACCESS:         56 HIT:          0 MISS:         56 MSHR_MERGE:          0
cpu0->cpu0_L2C PREFETCH REQUESTED:          0 ISSUED:          0 USEFUL:          0 USELESS:          0
cpu0->cpu0_L2C AVERAGE MISS LATENCY: 119.2 cycles
cpu0->cpu0_L1I TOTAL        ACCESS:     767006 HIT:     767006 MISS:          0 MSHR_MERGE:          0
cpu0->cpu0_L1I LOAD         ACCESS:     767006 HIT:     767006 MISS:          0 MSHR_MERGE:          0
cpu0->cpu0_L1I RFO          ACCESS:          0 HIT:          0 MISS:          0 MSHR_MERGE:          0
cpu0->cpu0_L1I PREFETCH     ACCESS:          0 HIT:          0 MISS:          0 MSHR_MERGE:          0
cpu0->cpu0_L1I WRITE        ACCESS:          0 HIT:          0 MISS:          0 MSHR_MERGE:          0
cpu0->cpu0_L1I TRANSLATION  ACCESS:          0 HIT:          0 MISS:          0 MSHR_MERGE:          0
cpu0->cpu0_L1I PREFETCH REQUESTED:          0 ISSUED:          0 USEFUL:          0 USELESS:          0
cpu0->cpu0_L1I AVERAGE MISS LATENCY: - cycles
cpu0->cpu0_L1D TOTAL        ACCESS:   24063455 HIT:   24044064 MISS:      19391 MSHR_MERGE:      16263
cpu0->cpu0_L1D LOAD         ACCESS:   20677520 HIT:   20677044 MISS:        476 MSHR_MERGE:        163
cpu0->cpu0_L1D RFO          ACCESS:          0 HIT:          0 MISS:          0 MSHR_MERGE:          0
cpu0->cpu0_L1D PREFETCH     ACCESS:          0 HIT:          0 MISS:          0 MSHR_MERGE:          0
cpu0->cpu0_L1D WRITE        ACCESS:    3385843 HIT:    3366984 MISS:      18859 MSHR_MERGE:      16100
cpu0->cpu0_L1D TRANSLATION  ACCESS:         92 HIT:         36 MISS:         56 MSHR_MERGE:          0
cpu0->cpu0_L1D PREFETCH REQUESTED:          0 ISSUED:          0 USEFUL:          0 USELESS:          0
cpu0->cpu0_L1D AVERAGE MISS LATENCY: 216.7 cycles
cpu0->cpu0_ITLB TOTAL        ACCESS:     572539 HIT:     572539 MISS:          0 MSHR_MERGE:          0
cpu0->cpu0_ITLB LOAD         ACCESS:     572539 HIT:     572539 MISS:          0 MSHR_MERGE:          0
cpu0->cpu0_ITLB RFO          ACCESS:          0 HIT:          0 MISS:          0 MSHR_MERGE:          0
cpu0->cpu0_ITLB PREFETCH     ACCESS:          0 HIT:          0 MISS:          0 MSHR_MERGE:          0
cpu0->cpu0_ITLB WRITE        ACCESS:          0 HIT:          0 MISS:          0 MSHR_MERGE:          0
cpu0->cpu0_ITLB TRANSLATION  ACCESS:          0 HIT:          0 MISS:          0 MSHR_MERGE:          0
cpu0->cpu0_ITLB PREFETCH REQUESTED:          0 ISSUED:          0 USEFUL:          0 USELESS:          0
cpu0->cpu0_ITLB AVERAGE MISS LATENCY: - cycles
cpu0->cpu0_DTLB TOTAL        ACCESS:   23363252 HIT:   23362730 MISS:        522 MSHR_MERGE:        473
cpu0->cpu0_DTLB LOAD         ACCESS:   23363252 HIT:   23362730 MISS:        522 MSHR_MERGE:        473
cpu0->cpu0_DTLB RFO          ACCESS:          0 HIT:          0 MISS:          0 MSHR_MERGE:          0
cpu0->cpu0_DTLB PREFETCH     ACCESS:          0 HIT:          0 MISS:          0 MSHR_MERGE:          0
cpu0->cpu0_DTLB WRITE        ACCESS:          0 HIT:          0 MISS:          0 MSHR_MERGE:          0
cpu0->cpu0_DTLB TRANSLATION  ACCESS:          0 HIT:          0 MISS:          0 MSHR_MERGE:          0
cpu0->cpu0_DTLB PREFETCH REQUESTED:          0 ISSUED:          0 USEFUL:          0 USELESS:          0
cpu0->cpu0_DTLB AVERAGE MISS LATENCY: 667.6 cycles
cpu0->LLC TOTAL        ACCESS:       5699 HIT:       2665 MISS:       3034 MSHR_MERGE:          0
cpu0->LLC LOAD         ACCESS:        277 HIT:          7 MISS:        270 MSHR_MERGE:          0
cpu0->LLC RFO          ACCESS:       2710 HIT:          4 MISS:       2706 MSHR_MERGE:          0
cpu0->LLC PREFETCH     ACCESS:          0 HIT:          0 MISS:          0 MSHR_MERGE:          0
cpu0->LLC WRITE        ACCESS:       2656 HIT:       2651 MISS:          5 MSHR_MERGE:          0
cpu0->LLC TRANSLATION  ACCESS:         56 HIT:          3 MISS:         53 MSHR_MERGE:          0
cpu0->LLC PREFETCH REQUESTED:          0 ISSUED:          0 USEFUL:          0 USELESS:          0
cpu0->LLC AVERAGE MISS LATENCY: 198.1 cycles

DRAM Statistics

Channel 0 RQ ROW_BUFFER_HIT:          7
  ROW_BUFFER_MISS:       3022
  AVG DBUS CONGESTED CYCLE: 8.804
Channel 0 WQ ROW_BUFFER_HIT:        606
  ROW_BUFFER_MISS:       1822
  FULL:          0
Channel 0 REFRESHES ISSUED:       4089
