[VMEM] WARNING: physical memory size is smaller than virtual memory size.

*** ChampSim Multicore Out-of-Order Simulator ***
Warmup Instructions: 50000000
Simulation Instructions: 100000000
Number of CPUs: 1
Page size: 4096

Initialize SIGNATURE TABLE
ST_SET: 1
ST_WAY: 256
ST_TAG_BIT: 16

Initialize PATTERN TABLE
PT_SET: 512
PT_WAY: 4
SIG_DELTA_BIT: 7
C_SIG_BIT: 4
C_DELTA_BIT: 4

Initialize PREFETCH FILTER
FILTER_SET: 1024
Off-chip DRAM Size: 16 GiB Channels: 1 Width: 64-bit Data Rate: 3205 MT/s
Heartbeat CPU 0 instructions: 10000000 cycles: 2596366 heartbeat IPC: 3.852 cumulative IPC: 3.852 (Simulation time: 00 hr 00 min 22 sec)
Heartbeat CPU 0 instructions: 20000000 cycles: 5231938 heartbeat IPC: 3.794 cumulative IPC: 3.823 (Simulation time: 00 hr 00 min 46 sec)
Heartbeat CPU 0 instructions: 30000000 cycles: 7732199 heartbeat IPC: 4 cumulative IPC: 3.88 (Simulation time: 00 hr 01 min 05 sec)
Heartbeat CPU 0 instructions: 40000004 cycles: 10232485 heartbeat IPC: 4 cumulative IPC: 3.909 (Simulation time: 00 hr 01 min 25 sec)
Warmup finished CPU 0 instructions: 50000002 cycles: 12736033 cumulative IPC: 3.926 (Simulation time: 00 hr 01 min 45 sec)
Warmup complete CPU 0 instructions: 50000002 cycles: 12736033 cumulative IPC: 3.926 (Simulation time: 00 hr 01 min 45 sec)
Heartbeat CPU 0 instructions: 50000007 cycles: 12736034 heartbeat IPC: 3.994 cumulative IPC: 5 (Simulation time: 00 hr 01 min 45 sec)
Heartbeat CPU 0 instructions: 60000007 cycles: 17644540 heartbeat IPC: 2.037 cumulative IPC: 2.037 (Simulation time: 00 hr 02 min 11 sec)
Heartbeat CPU 0 instructions: 70000007 cycles: 22551374 heartbeat IPC: 2.038 cumulative IPC: 2.038 (Simulation time: 00 hr 02 min 35 sec)
Heartbeat CPU 0 instructions: 80000010 cycles: 27465054 heartbeat IPC: 2.035 cumulative IPC: 2.037 (Simulation time: 00 hr 03 min 00 sec)
Heartbeat CPU 0 instructions: 90000012 cycles: 32377126 heartbeat IPC: 2.036 cumulative IPC: 2.037 (Simulation time: 00 hr 03 min 26 sec)
Heartbeat CPU 0 instructions: 100000013 cycles: 37278806 heartbeat IPC: 2.04 cumulative IPC: 2.037 (Simulation time: 00 hr 03 min 52 sec)
Heartbeat CPU 0 instructions: 110000015 cycles: 42171609 heartbeat IPC: 2.044 cumulative IPC: 2.038 (Simulation time: 00 hr 04 min 18 sec)
Heartbeat CPU 0 instructions: 120000018 cycles: 47061174 heartbeat IPC: 2.045 cumulative IPC: 2.039 (Simulation time: 00 hr 04 min 43 sec)
Heartbeat CPU 0 instructions: 130000022 cycles: 51950010 heartbeat IPC: 2.045 cumulative IPC: 2.04 (Simulation time: 00 hr 05 min 08 sec)
Heartbeat CPU 0 instructions: 140000026 cycles: 56838835 heartbeat IPC: 2.045 cumulative IPC: 2.041 (Simulation time: 00 hr 05 min 33 sec)
Simulation finished CPU 0 instructions: 100000001 cycles: 49002915 cumulative IPC: 2.041 (Simulation time: 00 hr 05 min 56 sec)
Simulation complete CPU 0 instructions: 100000001 cycles: 49002915 cumulative IPC: 2.041 (Simulation time: 00 hr 05 min 56 sec)

ChampSim completed all CPUs

=== Simulation ===
CPU 0 runs 603.bwaves_s-1080B.champsimtrace.xz

Region of Interest Statistics

CPU 0 cumulative IPC: 2.041 instructions: 100000001 cycles: 49002915
CPU 0 Branch Prediction Accuracy: 87.05% MPKI: 18.85 Average ROB Occupancy at Mispredict: 32.43
Branch type MPKI
BRANCH_DIRECT_JUMP: 0.145
BRANCH_INDIRECT: 0
BRANCH_CONDITIONAL: 18.62
BRANCH_DIRECT_CALL: 0
BRANCH_INDIRECT_CALL: 0
BRANCH_RETURN: 0.08835

cpu0->cpu0_STLB TOTAL        ACCESS:         49 HIT:          3 MISS:         46 MSHR_MERGE:          0
cpu0->cpu0_STLB LOAD         ACCESS:         49 HIT:          3 MISS:         46 MSHR_MERGE:          0
cpu0->cpu0_STLB RFO          ACCESS:          0 HIT:          0 MISS:          0 MSHR_MERGE:          0
cpu0->cpu0_STLB PREFETCH     ACCESS:          0 HIT:          0 MISS:          0 MSHR_MERGE:          0
cpu0->cpu0_STLB WRITE        ACCESS:          0 HIT:          0 MISS:          0 MSHR_MERGE:          0
cpu0->cpu0_STLB TRANSLATION  ACCESS:          0 HIT:          0 MISS:          0 MSHR_MERGE:          0
cpu0->cpu0_STLB PREFETCH REQUESTED:          0 ISSUED:          0 USEFUL:          0 USELESS:          0
cpu0->cpu0_STLB AVERAGE MISS LATENCY: 742.3 cycles
cpu0->cpu0_L2C TOTAL        ACCESS:       8160 HIT:       1120 MISS:       7040 MSHR_MERGE:          3
cpu0->cpu0_L2C LOAD         ACCESS:        313 HIT:        220 MISS:         93 MSHR_MERGE:          0
cpu0->cpu0_L2C RFO          ACCESS:       2759 HIT:         53 MISS:       2706 MSHR_MERGE:          0
cpu0->cpu0_L2C PREFETCH     ACCESS:       2273 HIT:         30 MISS:       2243 MSHR_MERGE:          3
cpu0->cpu0_L2C WRITE        ACCESS:       2759 HIT:        816 MISS:       1943 MSHR_MERGE:          0
cpu0->cpu0_L2C TRANSLATION  ACCESS:         56 HIT:          1 MISS:         55 MSHR_MERGE:          0
cpu0->cpu0_L2C PREFETCH REQUESTED:       2273 ISSUED:       2273 USEFUL:        183 USELESS:          0
cpu0->cpu0_L2C AVERAGE MISS LATENCY: 168.6 cycles
cpu0->cpu0_L1I TOTAL        ACCESS:     766777 HIT:     766777 MISS:          0 MSHR_MERGE:          0
cpu0->cpu0_L1I LOAD         ACCESS:     766777 HIT:     766777 MISS:          0 MSHR_MERGE:          0
cpu0->cpu0_L1I RFO          ACCESS:          0 HIT:          0 MISS:          0 MSHR_MERGE:          0
cpu0->cpu0_L1I PREFETCH     ACCESS:          0 HIT:          0 MISS:          0 MSHR_MERGE:          0
cpu0->cpu0_L1I WRITE        ACCESS:          0 HIT:          0 MISS:          0 MSHR_MERGE:          0
cpu0->cpu0_L1I TRANSLATION  ACCESS:          0 HIT:          0 MISS:          0 MSHR_MERGE:          0
cpu0->cpu0_L1I PREFETCH REQUESTED:          0 ISSUED:          0 USEFUL:          0 USELESS:          0
cpu0->cpu0_L1I AVERAGE MISS LATENCY: - cycles
cpu0->cpu0_L1D TOTAL        ACCESS:   24063438 HIT:   24043158 MISS:      20280 MSHR_MERGE:      17152
cpu0->cpu0_L1D LOAD         ACCESS:   20677501 HIT:   20677031 MISS:        470 MSHR_MERGE:        157
cpu0->cpu0_L1D RFO          ACCESS:          0 HIT:          0 MISS:          0 MSHR_MERGE:          0
cpu0->cpu0_L1D PREFETCH     ACCESS:          0 HIT:          0 MISS:          0 MSHR_MERGE:          0
cpu0->cpu0_L1D WRITE        ACCESS:    3385845 HIT:    3366091 MISS:      19754 MSHR_MERGE:      16995
cpu0->cpu0_L1D TRANSLATION  ACCESS:         92 HIT:         36 MISS:         56 MSHR_MERGE:          0
cpu0->cpu0_L1D PREFETCH REQUESTED:          0 ISSUED:          0 USEFUL:          0 USELESS:          0
cpu0->cpu0_L1D AVERAGE MISS LATENCY: 265 cycles
cpu0->cpu0_ITLB TOTAL        ACCESS:     572275 HIT:     572275 MISS:          0 MSHR_MERGE:          0
cpu0->cpu0_ITLB LOAD         ACCESS:     572275 HIT:     572275 MISS:          0 MSHR_MERGE:          0
cpu0->cpu0_ITLB RFO          ACCESS:          0 HIT:          0 MISS:          0 MSHR_MERGE:          0
cpu0->cpu0_ITLB PREFETCH     ACCESS:          0 HIT:          0 MISS:          0 MSHR_MERGE:          0
cpu0->cpu0_ITLB WRITE        ACCESS:          0 HIT:          0 MISS:          0 MSHR_MERGE:          0
cpu0->cpu0_ITLB TRANSLATION  ACCESS:          0 HIT:          0 MISS:          0 MSHR_MERGE:          0
cpu0->cpu0_ITLB PREFETCH REQUESTED:          0 ISSUED:          0 USEFUL:          0 USELESS:          0
cpu0->cpu0_ITLB AVERAGE MISS LATENCY: - cycles
cpu0->cpu0_DTLB TOTAL        ACCESS:   23363233 HIT:   23362676 MISS:        557 MSHR_MERGE:        508
cpu0->cpu0_DTLB LOAD         ACCESS:   23363233 HIT:   23362676 MISS:        557 MSHR_MERGE:        508
cpu0->cpu0_DTLB RFO          ACCESS:          0 HIT:          0 MISS:          0 MSHR_MERGE:          0
cpu0->cpu0_DTLB PREFETCH     ACCESS:          0 HIT:          0 MISS:          0 MSHR_MERGE:          0
cpu0->cpu0_DTLB WRITE        ACCESS:          0 HIT:          0 MISS:          0 MSHR_MERGE:          0
cpu0->cpu0_DTLB TRANSLATION  ACCESS:          0 HIT:          0 MISS:          0 MSHR_MERGE:          0
cpu0->cpu0_DTLB PREFETCH REQUESTED:          0 ISSUED:          0 USEFUL:          0 USELESS:          0
cpu0->cpu0_DTLB AVERAGE MISS LATENCY: 702.8 cycles
cpu0->LLC TOTAL        ACCESS:       7863 HIT:       4549 MISS:       3314 MSHR_MERGE:         92
cpu0->LLC LOAD         ACCESS:         93 HIT:         89 MISS:          4 MSHR_MERGE:          0
cpu0->LLC RFO          ACCESS:       2706 HIT:          0 MISS:       2706 MSHR_MERGE:          0
cpu0->LLC PREFETCH     ACCESS:       2169 HIT:       1811 MISS:        358 MSHR_MERGE:         92
cpu0->LLC WRITE        ACCESS:       2840 HIT:       2647 MISS:        193 MSHR_MERGE:          0
cpu0->LLC TRANSLATION  ACCESS:         55 HIT:          2 MISS:         53 MSHR_MERGE:          0
cpu0->LLC PREFETCH REQUESTED:          0 ISSUED:          0 USEFUL:          0 USELESS:          0
cpu0->LLC AVERAGE MISS LATENCY: 256.1 cycles

DRAM Statistics

Channel 0 RQ ROW_BUFFER_HIT:         62
  ROW_BUFFER_MISS:       2967
  AVG DBUS CONGESTED CYCLE: 7.881
Channel 0 WQ ROW_BUFFER_HIT:        441
  ROW_BUFFER_MISS:       2192
  FULL:          0
Channel 0 REFRESHES ISSUED:       4083
