[VMEM] WARNING: physical memory size is smaller than virtual memory size.

*** ChampSim Multicore Out-of-Order Simulator ***
Warmup Instructions: 50000000
Simulation Instructions: 100000000
Number of CPUs: 1
Page size: 4096

Initialize SIGNATURE TABLE
ST_SET: 1
ST_WAY: 256
ST_TAG_BIT: 16

Initialize PATTERN TABLE
PT_SET: 512
PT_WAY: 4
SIG_DELTA_BIT: 7
C_SIG_BIT: 4
C_DELTA_BIT: 4

Initialize PREFETCH FILTER
FILTER_SET: 1024
Off-chip DRAM Size: 16 GiB Channels: 1 Width: 64-bit Data Rate: 3205 MT/s
Heartbeat CPU 0 instructions: 10000000 cycles: 2596356 heartbeat IPC: 3.852 cumulative IPC: 3.852 (Simulation time: 00 hr 00 min 22 sec)
Heartbeat CPU 0 instructions: 20000000 cycles: 5231928 heartbeat IPC: 3.794 cumulative IPC: 3.823 (Simulation time: 00 hr 00 min 46 sec)
Heartbeat CPU 0 instructions: 30000000 cycles: 7732189 heartbeat IPC: 4 cumulative IPC: 3.88 (Simulation time: 00 hr 01 min 07 sec)
Heartbeat CPU 0 instructions: 40000004 cycles: 10232475 heartbeat IPC: 4 cumulative IPC: 3.909 (Simulation time: 00 hr 01 min 27 sec)
Warmup finished CPU 0 instructions: 50000002 cycles: 12736023 cumulative IPC: 3.926 (Simulation time: 00 hr 01 min 47 sec)
Warmup complete CPU 0 instructions: 50000002 cycles: 12736023 cumulative IPC: 3.926 (Simulation time: 00 hr 01 min 47 sec)
Heartbeat CPU 0 instructions: 50000007 cycles: 12736024 heartbeat IPC: 3.994 cumulative IPC: 5 (Simulation time: 00 hr 01 min 47 sec)
Heartbeat CPU 0 instructions: 60000007 cycles: 17644530 heartbeat IPC: 2.037 cumulative IPC: 2.037 (Simulation time: 00 hr 02 min 12 sec)
Heartbeat CPU 0 instructions: 70000007 cycles: 22551374 heartbeat IPC: 2.038 cumulative IPC: 2.038 (Simulation time: 00 hr 02 min 36 sec)
Heartbeat CPU 0 instructions: 80000010 cycles: 27465054 heartbeat IPC: 2.035 cumulative IPC: 2.037 (Simulation time: 00 hr 02 min 58 sec)
Heartbeat CPU 0 instructions: 90000012 cycles: 32376999 heartbeat IPC: 2.036 cumulative IPC: 2.037 (Simulation time: 00 hr 03 min 19 sec)
Heartbeat CPU 0 instructions: 100000013 cycles: 37278573 heartbeat IPC: 2.04 cumulative IPC: 2.037 (Simulation time: 00 hr 03 min 40 sec)
Heartbeat CPU 0 instructions: 110000015 cycles: 42171174 heartbeat IPC: 2.044 cumulative IPC: 2.038 (Simulation time: 00 hr 03 min 58 sec)
Heartbeat CPU 0 instructions: 120000018 cycles: 47060739 heartbeat IPC: 2.045 cumulative IPC: 2.039 (Simulation time: 00 hr 04 min 17 sec)
Heartbeat CPU 0 instructions: 130000022 cycles: 51949578 heartbeat IPC: 2.045 cumulative IPC: 2.04 (Simulation time: 00 hr 04 min 35 sec)
Heartbeat CPU 0 instructions: 140000026 cycles: 56838405 heartbeat IPC: 2.045 cumulative IPC: 2.041 (Simulation time: 00 hr 04 min 54 sec)
Simulation finished CPU 0 instructions: 100000001 cycles: 49002370 cumulative IPC: 2.041 (Simulation time: 00 hr 05 min 12 sec)
Simulation complete CPU 0 instructions: 100000001 cycles: 49002370 cumulative IPC: 2.041 (Simulation time: 00 hr 05 min 12 sec)

ChampSim completed all CPUs

=== Simulation ===
CPU 0 runs 603.bwaves_s-1080B.champsimtrace.xz

Region of Interest Statistics

CPU 0 cumulative IPC: 2.041 instructions: 100000001 cycles: 49002370
CPU 0 Branch Prediction Accuracy: 87.05% MPKI: 18.85 Average ROB Occupancy at Mispredict: 32.43
Branch type MPKI
BRANCH_DIRECT_JUMP: 0.145
BRANCH_INDIRECT: 0
BRANCH_CONDITIONAL: 18.62
BRANCH_DIRECT_CALL: 0
BRANCH_INDIRECT_CALL: 0
BRANCH_RETURN: 0.08835

cpu0->cpu0_STLB TOTAL        ACCESS:         49 HIT:          3 MISS:         46 MSHR_MERGE:          0
cpu0->cpu0_STLB LOAD         ACCESS:         49 HIT:          3 MISS:         46 MSHR_MERGE:          0
cpu0->cpu0_STLB RFO          ACCESS:          0 HIT:          0 MISS:          0 MSHR_MERGE:          0
cpu0->cpu0_STLB PREFETCH     ACCESS:          0 HIT:          0 MISS:          0 MSHR_MERGE:          0
cpu0->cpu0_STLB WRITE        ACCESS:          0 HIT:          0 MISS:          0 MSHR_MERGE:          0
cpu0->cpu0_STLB TRANSLATION  ACCESS:          0 HIT:          0 MISS:          0 MSHR_MERGE:          0
cpu0->cpu0_STLB PREFETCH REQUESTED:          0 ISSUED:          0 USEFUL:          0 USELESS:          0
cpu0->cpu0_STLB AVERAGE MISS LATENCY: 722.2 cycles
cpu0->cpu0_L2C TOTAL        ACCESS:       8182 HIT:       1118 MISS:       7064 MSHR_MERGE:          3
cpu0->cpu0_L2C LOAD         ACCESS:        313 HIT:        220 MISS:         93 MSHR_MERGE:          0
cpu0->cpu0_L2C RFO          ACCESS:       2759 HIT:         53 MISS:       2706 MSHR_MERGE:          0
cpu0->cpu0_L2C PREFETCH     ACCESS:       2295 HIT:         31 MISS:       2264 MSHR_MERGE:          3
cpu0->cpu0_L2C WRITE        ACCESS:       2759 HIT:        813 MISS:       1946 MSHR_MERGE:          0
cpu0->cpu0_L2C TRANSLATION  ACCESS:         56 HIT:          1 MISS:         55 MSHR_MERGE:          0
cpu0->cpu0_L2C PREFETCH REQUESTED:       2295 ISSUED:       2295 USEFUL:        183 USELESS:          0
cpu0->cpu0_L2C AVERAGE MISS LATENCY: 167.6 cycles
cpu0->cpu0_L1I TOTAL        ACCESS:     766773 HIT:     766773 MISS:          0 MSHR_MERGE:          0
cpu0->cpu0_L1I LOAD         ACCESS:     766773 HIT:     766773 MISS:          0 MSHR_MERGE:          0
cpu0->cpu0_L1I RFO          ACCESS:          0 HIT:          0 MISS:          0 MSHR_MERGE:          0
cpu0->cpu0_L1I PREFETCH     ACCESS:          0 HIT:          0 MISS:          0 MSHR_MERGE:          0
cpu0->cpu0_L1I WRITE        ACCESS:          0 HIT:          0 MISS:          0 MSHR_MERGE:          0
cpu0->cpu0_L1I TRANSLATION  ACCESS:          0 HIT:          0 MISS:          0 MSHR_MERGE:          0
cpu0->cpu0_L1I PREFETCH REQUESTED:          0 ISSUED:          0 USEFUL:          0 USELESS:          0
cpu0->cpu0_L1I AVERAGE MISS LATENCY: - cycles
cpu0->cpu0_L1D TOTAL        ACCESS:   24063445 HIT:   24043238 MISS:      20207 MSHR_MERGE:      17079
cpu0->cpu0_L1D LOAD         ACCESS:   20677509 HIT:   20677036 MISS:        473 MSHR_MERGE:        160
cpu0->cpu0_L1D RFO          ACCESS:          0 HIT:          0 MISS:          0 MSHR_MERGE:          0
cpu0->cpu0_L1D PREFETCH     ACCESS:          0 HIT:          0 MISS:          0 MSHR_MERGE:          0
cpu0->cpu0_L1D WRITE        ACCESS:    3385844 HIT:    3366166 MISS:      19678 MSHR_MERGE:      16919
cpu0->cpu0_L1D TRANSLATION  ACCESS:         92 HIT:         36 MISS:         56 MSHR_MERGE:          0
cpu0->cpu0_L1D PREFETCH REQUESTED:          0 ISSUED:          0 USEFUL:          0 USELESS:          0
cpu0->cpu0_L1D AVERAGE MISS LATENCY: 263.6 cycles
cpu0->cpu0_ITLB TOTAL        ACCESS:     572264 HIT:     572264 MISS:          0 MSHR_MERGE:          0
cpu0->cpu0_ITLB LOAD         ACCESS:     572264 HIT:     572264 MISS:          0 MSHR_MERGE:          0
cpu0->cpu0_ITLB RFO          ACCESS:          0 HIT:          0 MISS:          0 MSHR_MERGE:          0
cpu0->cpu0_ITLB PREFETCH     ACCESS:          0 HIT:          0 MISS:          0 MSHR_MERGE:          0
cpu0->cpu0_ITLB WRITE        ACCESS:          0 HIT:          0 MISS:          0 MSHR_MERGE:          0
cpu0->cpu0_ITLB TRANSLATION  ACCESS:          0 HIT:          0 MISS:          0 MSHR_MERGE:          0
cpu0->cpu0_ITLB PREFETCH REQUESTED:          0 ISSUED:          0 USEFUL:          0 USELESS:          0
cpu0->cpu0_ITLB AVERAGE MISS LATENCY: - cycles
cpu0->cpu0_DTLB TOTAL        ACCESS:   23363241 HIT:   23362718 MISS:        523 MSHR_MERGE:        474
cpu0->cpu0_DTLB LOAD         ACCESS:   23363241 HIT:   23362718 MISS:        523 MSHR_MERGE:        474
cpu0->cpu0_DTLB RFO          ACCESS:          0 HIT:          0 MISS:          0 MSHR_MERGE:          0
cpu0->cpu0_DTLB PREFETCH     ACCESS:          0 HIT:          0 MISS:          0 MSHR_MERGE:          0
cpu0->cpu0_DTLB WRITE        ACCESS:          0 HIT:          0 MISS:          0 MSHR_MERGE:          0
cpu0->cpu0_DTLB TRANSLATION  ACCESS:          0 HIT:          0 MISS:          0 MSHR_MERGE:          0
cpu0->cpu0_DTLB PREFETCH REQUESTED:          0 ISSUED:          0 USEFUL:          0 USELESS:          0
cpu0->cpu0_DTLB AVERAGE MISS LATENCY: 683.9 cycles
cpu0->LLC TOTAL        ACCESS:       7921 HIT:       4595 MISS:       3326 MSHR_MERGE:         80
cpu0->LLC LOAD         ACCESS:         93 HIT:         89 MISS:          4 MSHR_MERGE:          0
cpu0->LLC RFO          ACCESS:       2706 HIT:          0 MISS:       2706 MSHR_MERGE:          0
cpu0->LLC PREFETCH     ACCESS:       2197 HIT:       1852 MISS:        345 MSHR_MERGE:         80
cpu0->LLC WRITE        ACCESS:       2870 HIT:       2652 MISS:        218 MSHR_MERGE:          0
cpu0->LLC TRANSLATION  ACCESS:         55 HIT:          2 MISS:         53 MSHR_MERGE:          0
cpu0->LLC PREFETCH REQUESTED:          0 ISSUED:          0 USEFUL:          0 USELESS:          0
cpu0->LLC AVERAGE MISS LATENCY: 252.6 cycles

DRAM Statistics

Channel 0 RQ ROW_BUFFER_HIT:         47
  ROW_BUFFER_MISS:       2981
  AVG DBUS CONGESTED CYCLE: 7.668
Channel 0 WQ ROW_BUFFER_HIT:        430
  ROW_BUFFER_MISS:       2213
  FULL:          0
Channel 0 REFRESHES ISSUED:       4083
