[VMEM] WARNING: physical memory size is smaller than virtual memory size.

*** ChampSim Multicore Out-of-Order Simulator ***
Warmup Instructions: 50000000
Simulation Instructions: 100000000
Number of CPUs: 1
Page size: 4096

Initialize SIGNATURE TABLE
ST_SET: 1
ST_WAY: 256
ST_TAG_BIT: 16

Initialize PATTERN TABLE
PT_SET: 512
PT_WAY: 4
SIG_DELTA_BIT: 7
C_SIG_BIT: 4
C_DELTA_BIT: 4

Initialize PREFETCH FILTER
FILTER_SET: 1024
Off-chip DRAM Size: 16 GiB Channels: 1 Width: 64-bit Data Rate: 3205 MT/s
Heartbeat CPU 0 instructions: 10000001 cycles: 2536802 heartbeat IPC: 3.942 cumulative IPC: 3.942 (Simulation time: 00 hr 00 min 22 sec)
Heartbeat CPU 0 instructions: 20000004 cycles: 5064869 heartbeat IPC: 3.956 cumulative IPC: 3.949 (Simulation time: 00 hr 00 min 45 sec)
Heartbeat CPU 0 instructions: 30000004 cycles: 7582224 heartbeat IPC: 3.972 cumulative IPC: 3.957 (Simulation time: 00 hr 01 min 07 sec)
Heartbeat CPU 0 instructions: 40000007 cycles: 10097407 heartbeat IPC: 3.976 cumulative IPC: 3.961 (Simulation time: 00 hr 01 min 30 sec)
Warmup finished CPU 0 instructions: 50000003 cycles: 12613319 cumulative IPC: 3.964 (Simulation time: 00 hr 01 min 52 sec)
Warmup complete CPU 0 instructions: 50000003 cycles: 12613319 cumulative IPC: 3.964 (Simulation time: 00 hr 01 min 52 sec)
Heartbeat CPU 0 instructions: 50000007 cycles: 12613320 heartbeat IPC: 3.975 cumulative IPC: 4 (Simulation time: 00 hr 01 min 52 sec)
Heartbeat CPU 0 instructions: 60000008 cycles: 16166448 heartbeat IPC: 2.814 cumulative IPC: 2.814 (Simulation time: 00 hr 02 min 16 sec)
Heartbeat CPU 0 instructions: 70000009 cycles: 19717116 heartbeat IPC: 2.816 cumulative IPC: 2.815 (Simulation time: 00 hr 02 min 40 sec)
Heartbeat CPU 0 instructions: 80000010 cycles: 23265833 heartbeat IPC: 2.818 cumulative IPC: 2.816 (Simulation time: 00 hr 03 min 07 sec)
Heartbeat CPU 0 instructions: 90000011 cycles: 26825394 heartbeat IPC: 2.809 cumulative IPC: 2.815 (Simulation time: 00 hr 03 min 32 sec)
Heartbeat CPU 0 instructions: 100000015 cycles: 30360025 heartbeat IPC: 2.829 cumulative IPC: 2.817 (Simulation time: 00 hr 03 min 57 sec)
Heartbeat CPU 0 instructions: 110000016 cycles: 33856301 heartbeat IPC: 2.86 cumulative IPC: 2.824 (Simulation time: 00 hr 04 min 22 sec)
Heartbeat CPU 0 instructions: 120000017 cycles: 37339749 heartbeat IPC: 2.871 cumulative IPC: 2.831 (Simulation time: 00 hr 04 min 46 sec)
Heartbeat CPU 0 instructions: 130000018 cycles: 40825522 heartbeat IPC: 2.869 cumulative IPC: 2.836 (Simulation time: 00 hr 05 min 10 sec)
Heartbeat CPU 0 instructions: 140000020 cycles: 47713663 heartbeat IPC: 1.452 cumulative IPC: 2.564 (Simulation time: 00 hr 05 min 43 sec)
Simulation finished CPU 0 instructions: 100000003 cycles: 40195360 cumulative IPC: 2.488 (Simulation time: 00 hr 06 min 12 sec)
Simulation complete CPU 0 instructions: 100000003 cycles: 40195360 cumulative IPC: 2.488 (Simulation time: 00 hr 06 min 12 sec)

ChampSim completed all CPUs

=== Simulation ===
CPU 0 runs 625.x264_s-18B.champsimtrace.xz

Region of Interest Statistics

CPU 0 cumulative IPC: 2.488 instructions: 100000003 cycles: 40195360
CPU 0 Branch Prediction Accuracy: 87.37% MPKI: 6.356 Average ROB Occupancy at Mispredict: 61.82
Branch type MPKI
BRANCH_DIRECT_JUMP: 0.00129
BRANCH_INDIRECT: 0.0005
BRANCH_CONDITIONAL: 6.278
BRANCH_DIRECT_CALL: 0.00205
BRANCH_INDIRECT_CALL: 0.01099
BRANCH_RETURN: 0.06297

cpu0->cpu0_STLB TOTAL        ACCESS:      32366 HIT:      31131 MISS:       1235 MSHR_MERGE:          0
cpu0->cpu0_STLB LOAD         ACCESS:      32366 HIT:      31131 MISS:       1235 MSHR_MERGE:          0
cpu0->cpu0_STLB RFO          ACCESS:          0 HIT:          0 MISS:          0 MSHR_MERGE:          0
cpu0->cpu0_STLB PREFETCH     ACCESS:          0 HIT:          0 MISS:          0 MSHR_MERGE:          0
cpu0->cpu0_STLB WRITE        ACCESS:          0 HIT:          0 MISS:          0 MSHR_MERGE:          0
cpu0->cpu0_STLB TRANSLATION  ACCESS:          0 HIT:          0 MISS:          0 MSHR_MERGE:          0
cpu0->cpu0_STLB PREFETCH REQUESTED:          0 ISSUED:          0 USEFUL:          0 USELESS:          0
cpu0->cpu0_STLB AVERAGE MISS LATENCY: 799.2 cycles
cpu0->cpu0_L2C TOTAL        ACCESS:     503563 HIT:     158093 MISS:     345470 MSHR_MERGE:      10593
cpu0->cpu0_L2C LOAD         ACCESS:     106625 HIT:      71249 MISS:      35376 MSHR_MERGE:       1369
cpu0->cpu0_L2C RFO          ACCESS:       9582 HIT:       1290 MISS:       8292 MSHR_MERGE:          0
cpu0->cpu0_L2C PREFETCH     ACCESS:     370097 HIT:      76706 MISS:     293391 MSHR_MERGE:       9224
cpu0->cpu0_L2C WRITE        ACCESS:      15074 HIT:       8831 MISS:       6243 MSHR_MERGE:          0
cpu0->cpu0_L2C TRANSLATION  ACCESS:       2185 HIT:         17 MISS:       2168 MSHR_MERGE:          0
cpu0->cpu0_L2C PREFETCH REQUESTED:     381106 ISSUED:     370097 USEFUL:      22141 USELESS:        408
cpu0->cpu0_L2C AVERAGE MISS LATENCY: 80.78 cycles
cpu0->cpu0_L1I TOTAL        ACCESS:    8358044 HIT:    8291246 MISS:      66798 MSHR_MERGE:      23961
cpu0->cpu0_L1I LOAD         ACCESS:    8358044 HIT:    8291246 MISS:      66798 MSHR_MERGE:      23961
cpu0->cpu0_L1I RFO          ACCESS:          0 HIT:          0 MISS:          0 MSHR_MERGE:          0
cpu0->cpu0_L1I PREFETCH     ACCESS:          0 HIT:          0 MISS:          0 MSHR_MERGE:          0
cpu0->cpu0_L1I WRITE        ACCESS:          0 HIT:          0 MISS:          0 MSHR_MERGE:          0
cpu0->cpu0_L1I TRANSLATION  ACCESS:          0 HIT:          0 MISS:          0 MSHR_MERGE:          0
cpu0->cpu0_L1I PREFETCH REQUESTED:          0 ISSUED:          0 USEFUL:          0 USELESS:          0
cpu0->cpu0_L1I AVERAGE MISS LATENCY: 13.29 cycles
cpu0->cpu0_L1D TOTAL        ACCESS:   21235518 HIT:   21065154 MISS:     170364 MSHR_MERGE:      94808
cpu0->cpu0_L1D LOAD         ACCESS:   14667984 HIT:   14552572 MISS:     115412 MSHR_MERGE:      51624
cpu0->cpu0_L1D RFO          ACCESS:          0 HIT:          0 MISS:          0 MSHR_MERGE:          0
cpu0->cpu0_L1D PREFETCH     ACCESS:          0 HIT:          0 MISS:          0 MSHR_MERGE:          0
cpu0->cpu0_L1D WRITE        ACCESS:    6565039 HIT:    6512347 MISS:      52692 MSHR_MERGE:      43109
cpu0->cpu0_L1D TRANSLATION  ACCESS:       2495 HIT:        235 MISS:       2260 MSHR_MERGE:         75
cpu0->cpu0_L1D PREFETCH REQUESTED:          0 ISSUED:          0 USEFUL:          0 USELESS:          0
cpu0->cpu0_L1D AVERAGE MISS LATENCY: 60.5 cycles
cpu0->cpu0_ITLB TOTAL        ACCESS:    7487651 HIT:    7486607 MISS:       1044 MSHR_MERGE:        692
cpu0->cpu0_ITLB LOAD         ACCESS:    7487651 HIT:    7486607 MISS:       1044 MSHR_MERGE:        692
cpu0->cpu0_ITLB RFO          ACCESS:          0 HIT:          0 MISS:          0 MSHR_MERGE:          0
cpu0->cpu0_ITLB PREFETCH     ACCESS:          0 HIT:          0 MISS:          0 MSHR_MERGE:          0
cpu0->cpu0_ITLB WRITE        ACCESS:          0 HIT:          0 MISS:          0 MSHR_MERGE:          0
cpu0->cpu0_ITLB TRANSLATION  ACCESS:          0 HIT:          0 MISS:          0 MSHR_MERGE:          0
cpu0->cpu0_ITLB PREFETCH REQUESTED:          0 ISSUED:          0 USEFUL:          0 USELESS:          0
cpu0->cpu0_ITLB AVERAGE MISS LATENCY: 153.6 cycles
cpu0->cpu0_DTLB TOTAL        ACCESS:   20194693 HIT:   20127895 MISS:      66798 MSHR_MERGE:      34784
cpu0->cpu0_DTLB LOAD         ACCESS:   20194693 HIT:   20127895 MISS:      66798 MSHR_MERGE:      34784
cpu0->cpu0_DTLB RFO          ACCESS:          0 HIT:          0 MISS:          0 MSHR_MERGE:          0
cpu0->cpu0_DTLB PREFETCH     ACCESS:          0 HIT:          0 MISS:          0 MSHR_MERGE:          0
cpu0->cpu0_DTLB WRITE        ACCESS:          0 HIT:          0 MISS:          0 MSHR_MERGE:          0
cpu0->cpu0_DTLB TRANSLATION  ACCESS:          0 HIT:          0 MISS:          0 MSHR_MERGE:          0
cpu0->cpu0_DTLB PREFETCH REQUESTED:          0 ISSUED:          0 USEFUL:          0 USELESS:          0
cpu0->cpu0_DTLB AVERAGE MISS LATENCY: 34.23 cycles
cpu0->LLC TOTAL        ACCESS:     336030 HIT:     252780 MISS:      83250 MSHR_MERGE:      22963
cpu0->LLC LOAD         ACCESS:      34007 HIT:      25358 MISS:       8649 MSHR_MERGE:       1712
cpu0->LLC RFO          ACCESS:       8292 HIT:        233 MISS:       8059 MSHR_MERGE:          1
cpu0->LLC PREFETCH     ACCESS:     284091 HIT:     219918 MISS:      64173 MSHR_MERGE:      21250
cpu0->LLC WRITE        ACCESS:       7472 HIT:       7247 MISS:        225 MSHR_MERGE:          0
cpu0->LLC TRANSLATION  ACCESS:       2168 HIT:         24 MISS:       2144 MSHR_MERGE:          0
cpu0->LLC PREFETCH REQUESTED:          0 ISSUED:          0 USEFUL:          0 USELESS:          0
cpu0->LLC AVERAGE MISS LATENCY: 175.7 cycles

DRAM Statistics

Channel 0 RQ ROW_BUFFER_HIT:       2078
  ROW_BUFFER_MISS:      57984
  AVG DBUS CONGESTED CYCLE: 5.809
Channel 0 WQ ROW_BUFFER_HIT:        332
  ROW_BUFFER_MISS:       1246
  FULL:          0
Channel 0 REFRESHES ISSUED:       3349
