[VMEM] WARNING: physical memory size is smaller than virtual memory size.

*** ChampSim Multicore Out-of-Order Simulator ***
Warmup Instructions: 50000000
Simulation Instructions: 100000000
Number of CPUs: 1
Page size: 4096

Initialize SIGNATURE TABLE
ST_SET: 1
ST_WAY: 256
ST_TAG_BIT: 16

Initialize PATTERN TABLE
PT_SET: 512
PT_WAY: 4
SIG_DELTA_BIT: 7
C_SIG_BIT: 4
C_DELTA_BIT: 4

Initialize PREFETCH FILTER
FILTER_SET: 1024
Off-chip DRAM Size: 16 GiB Channels: 1 Width: 64-bit Data Rate: 3205 MT/s
Heartbeat CPU 0 instructions: 10000000 cycles: 2940433 heartbeat IPC: 3.401 cumulative IPC: 3.401 (Simulation time: 00 hr 00 min 28 sec)
Heartbeat CPU 0 instructions: 20000002 cycles: 5644039 heartbeat IPC: 3.699 cumulative IPC: 3.544 (Simulation time: 00 hr 00 min 55 sec)
Heartbeat CPU 0 instructions: 30000005 cycles: 8259913 heartbeat IPC: 3.823 cumulative IPC: 3.632 (Simulation time: 00 hr 01 min 23 sec)
Heartbeat CPU 0 instructions: 40000005 cycles: 10846777 heartbeat IPC: 3.866 cumulative IPC: 3.688 (Simulation time: 00 hr 01 min 49 sec)
Warmup finished CPU 0 instructions: 50000001 cycles: 13430019 cumulative IPC: 3.723 (Simulation time: 00 hr 02 min 16 sec)
Warmup complete CPU 0 instructions: 50000001 cycles: 13430019 cumulative IPC: 3.723 (Simulation time: 00 hr 02 min 16 sec)
Heartbeat CPU 0 instructions: 50000006 cycles: 13430020 heartbeat IPC: 3.871 cumulative IPC: 5 (Simulation time: 00 hr 02 min 16 sec)
Heartbeat CPU 0 instructions: 60000007 cycles: 20950574 heartbeat IPC: 1.33 cumulative IPC: 1.33 (Simulation time: 00 hr 02 min 54 sec)
Heartbeat CPU 0 instructions: 70000010 cycles: 28680457 heartbeat IPC: 1.294 cumulative IPC: 1.311 (Simulation time: 00 hr 03 min 32 sec)
Heartbeat CPU 0 instructions: 80000010 cycles: 36284030 heartbeat IPC: 1.315 cumulative IPC: 1.313 (Simulation time: 00 hr 04 min 11 sec)
Heartbeat CPU 0 instructions: 90000013 cycles: 43966968 heartbeat IPC: 1.302 cumulative IPC: 1.31 (Simulation time: 00 hr 04 min 48 sec)
Heartbeat CPU 0 instructions: 100000015 cycles: 51565739 heartbeat IPC: 1.316 cumulative IPC: 1.311 (Simulation time: 00 hr 05 min 27 sec)
Heartbeat CPU 0 instructions: 110000015 cycles: 59257640 heartbeat IPC: 1.3 cumulative IPC: 1.309 (Simulation time: 00 hr 06 min 07 sec)
Heartbeat CPU 0 instructions: 120000016 cycles: 66873416 heartbeat IPC: 1.313 cumulative IPC: 1.31 (Simulation time: 00 hr 06 min 45 sec)
Heartbeat CPU 0 instructions: 130000020 cycles: 74531922 heartbeat IPC: 1.306 cumulative IPC: 1.309 (Simulation time: 00 hr 07 min 23 sec)
Heartbeat CPU 0 instructions: 140000022 cycles: 82128589 heartbeat IPC: 1.316 cumulative IPC: 1.31 (Simulation time: 00 hr 08 min 01 sec)
Simulation finished CPU 0 instructions: 100000001 cycles: 76350030 cumulative IPC: 1.31 (Simulation time: 00 hr 08 min 38 sec)
Simulation complete CPU 0 instructions: 100000001 cycles: 76350030 cumulative IPC: 1.31 (Simulation time: 00 hr 08 min 38 sec)

ChampSim completed all CPUs

=== Simulation ===
CPU 0 runs 445.gobmk-17B.champsimtrace.xz

Region of Interest Statistics

CPU 0 cumulative IPC: 1.31 instructions: 100000001 cycles: 76350030
CPU 0 Branch Prediction Accuracy: 86.27% MPKI: 24.34 Average ROB Occupancy at Mispredict: 17.18
Branch type MPKI
BRANCH_DIRECT_JUMP: 0.02599
BRANCH_INDIRECT: 0
BRANCH_CONDITIONAL: 24.25
BRANCH_DIRECT_CALL: 0.07071
BRANCH_INDIRECT_CALL: 0
BRANCH_RETURN: 1e-05

cpu0->cpu0_STLB TOTAL        ACCESS:       4135 HIT:       4072 MISS:         63 MSHR_MERGE:          0
cpu0->cpu0_STLB LOAD         ACCESS:       4135 HIT:       4072 MISS:         63 MSHR_MERGE:          0
cpu0->cpu0_STLB RFO          ACCESS:          0 HIT:          0 MISS:          0 MSHR_MERGE:          0
cpu0->cpu0_STLB PREFETCH     ACCESS:          0 HIT:          0 MISS:          0 MSHR_MERGE:          0
cpu0->cpu0_STLB WRITE        ACCESS:          0 HIT:          0 MISS:          0 MSHR_MERGE:          0
cpu0->cpu0_STLB TRANSLATION  ACCESS:          0 HIT:          0 MISS:          0 MSHR_MERGE:          0
cpu0->cpu0_STLB PREFETCH REQUESTED:          0 ISSUED:          0 USEFUL:          0 USELESS:          0
cpu0->cpu0_STLB AVERAGE MISS LATENCY: 487.4 cycles
cpu0->cpu0_L2C TOTAL        ACCESS:     464058 HIT:     411344 MISS:      52714 MSHR_MERGE:       5843
cpu0->cpu0_L2C LOAD         ACCESS:     238729 HIT:     226386 MISS:      12343 MSHR_MERGE:          0
cpu0->cpu0_L2C RFO          ACCESS:      52371 HIT:      49248 MISS:       3123 MSHR_MERGE:          0
cpu0->cpu0_L2C PREFETCH     ACCESS:     109932 HIT:      77742 MISS:      32190 MSHR_MERGE:       5843
cpu0->cpu0_L2C WRITE        ACCESS:      62902 HIT:      57965 MISS:       4937 MSHR_MERGE:          0
cpu0->cpu0_L2C TRANSLATION  ACCESS:        124 HIT:          3 MISS:        121 MSHR_MERGE:          0
cpu0->cpu0_L2C PREFETCH REQUESTED:     109932 ISSUED:     109932 USEFUL:          0 USELESS:          0
cpu0->cpu0_L2C AVERAGE MISS LATENCY: 16.94 cycles
cpu0->cpu0_L1I TOTAL        ACCESS:   13423787 HIT:   13135856 MISS:     287931 MSHR_MERGE:      71809
cpu0->cpu0_L1I LOAD         ACCESS:   13423787 HIT:   13135856 MISS:     287931 MSHR_MERGE:      71809
cpu0->cpu0_L1I RFO          ACCESS:          0 HIT:          0 MISS:          0 MSHR_MERGE:          0
cpu0->cpu0_L1I PREFETCH     ACCESS:          0 HIT:          0 MISS:          0 MSHR_MERGE:          0
cpu0->cpu0_L1I WRITE        ACCESS:          0 HIT:          0 MISS:          0 MSHR_MERGE:          0
cpu0->cpu0_L1I TRANSLATION  ACCESS:          0 HIT:          0 MISS:          0 MSHR_MERGE:          0
cpu0->cpu0_L1I PREFETCH REQUESTED:          0 ISSUED:          0 USEFUL:          0 USELESS:          0
cpu0->cpu0_L1I AVERAGE MISS LATENCY: 7.683 cycles
cpu0->cpu0_L1D TOTAL        ACCESS:   35324039 HIT:   35172110 MISS:     151929 MSHR_MERGE:      76826
cpu0->cpu0_L1D LOAD         ACCESS:   18923505 HIT:   18893388 MISS:      30117 MSHR_MERGE:       7510
cpu0->cpu0_L1D RFO          ACCESS:          0 HIT:          0 MISS:          0 MSHR_MERGE:          0
cpu0->cpu0_L1D PREFETCH     ACCESS:          0 HIT:          0 MISS:          0 MSHR_MERGE:          0
cpu0->cpu0_L1D WRITE        ACCESS:   16400408 HIT:   16278720 MISS:     121688 MSHR_MERGE:      69316
cpu0->cpu0_L1D TRANSLATION  ACCESS:        126 HIT:          2 MISS:        124 MSHR_MERGE:          0
cpu0->cpu0_L1D PREFETCH REQUESTED:          0 ISSUED:          0 USEFUL:          0 USELESS:          0
cpu0->cpu0_L1D AVERAGE MISS LATENCY: 10.82 cycles
cpu0->cpu0_ITLB TOTAL        ACCESS:   11129235 HIT:   11129235 MISS:          0 MSHR_MERGE:          0
cpu0->cpu0_ITLB LOAD         ACCESS:   11129235 HIT:   11129235 MISS:          0 MSHR_MERGE:          0
cpu0->cpu0_ITLB RFO          ACCESS:          0 HIT:          0 MISS:          0 MSHR_MERGE:          0
cpu0->cpu0_ITLB PREFETCH     ACCESS:          0 HIT:          0 MISS:          0 MSHR_MERGE:          0
cpu0->cpu0_ITLB WRITE        ACCESS:          0 HIT:          0 MISS:          0 MSHR_MERGE:          0
cpu0->cpu0_ITLB TRANSLATION  ACCESS:          0 HIT:          0 MISS:          0 MSHR_MERGE:          0
cpu0->cpu0_ITLB PREFETCH REQUESTED:          0 ISSUED:          0 USEFUL:          0 USELESS:          0
cpu0->cpu0_ITLB AVERAGE MISS LATENCY: - cycles
cpu0->cpu0_DTLB TOTAL        ACCESS:   33850653 HIT:   33844364 MISS:       6289 MSHR_MERGE:       2154
cpu0->cpu0_DTLB LOAD         ACCESS:   33850653 HIT:   33844364 MISS:       6289 MSHR_MERGE:       2154
cpu0->cpu0_DTLB RFO          ACCESS:          0 HIT:          0 MISS:          0 MSHR_MERGE:          0
cpu0->cpu0_DTLB PREFETCH     ACCESS:          0 HIT:          0 MISS:          0 MSHR_MERGE:          0
cpu0->cpu0_DTLB WRITE        ACCESS:          0 HIT:          0 MISS:          0 MSHR_MERGE:          0
cpu0->cpu0_DTLB TRANSLATION  ACCESS:          0 HIT:          0 MISS:          0 MSHR_MERGE:          0
cpu0->cpu0_DTLB PREFETCH REQUESTED:          0 ISSUED:          0 USEFUL:          0 USELESS:          0
cpu0->cpu0_DTLB AVERAGE MISS LATENCY: 12.44 cycles
cpu0->LLC TOTAL        ACCESS:      47840 HIT:      46585 MISS:       1255 MSHR_MERGE:          2
cpu0->LLC LOAD         ACCESS:      12343 HIT:      11939 MISS:        404 MSHR_MERGE:          0
cpu0->LLC RFO          ACCESS:       3123 HIT:       3002 MISS:        121 MSHR_MERGE:          0
cpu0->LLC PREFETCH     ACCESS:      26347 HIT:      25710 MISS:        637 MSHR_MERGE:          2
cpu0->LLC WRITE        ACCESS:       5906 HIT:       5902 MISS:          4 MSHR_MERGE:          0
cpu0->LLC TRANSLATION  ACCESS:        121 HIT:         32 MISS:         89 MSHR_MERGE:          0
cpu0->LLC PREFETCH REQUESTED:          0 ISSUED:          0 USEFUL:          0 USELESS:          0
cpu0->LLC AVERAGE MISS LATENCY: 151.5 cycles

DRAM Statistics

Channel 0 RQ ROW_BUFFER_HIT:         11
  ROW_BUFFER_MISS:       1238
  AVG DBUS CONGESTED CYCLE: 7.883
Channel 0 WQ ROW_BUFFER_HIT:          5
  ROW_BUFFER_MISS:         20
  FULL:          0
Channel 0 REFRESHES ISSUED:       6362
