[VMEM] WARNING: physical memory size is smaller than virtual memory size.

*** ChampSim Multicore Out-of-Order Simulator ***
Warmup Instructions: 50000000
Simulation Instructions: 100000000
Number of CPUs: 1
Page size: 4096

Off-chip DRAM Size: 16 GiB Channels: 1 Width: 64-bit Data Rate: 3205 MT/s
Heartbeat CPU 0 instructions: 10000000 cycles: 2940643 heartbeat IPC: 3.401 cumulative IPC: 3.401 (Simulation time: 00 hr 00 min 28 sec)
Heartbeat CPU 0 instructions: 20000002 cycles: 5644389 heartbeat IPC: 3.699 cumulative IPC: 3.543 (Simulation time: 00 hr 00 min 55 sec)
Heartbeat CPU 0 instructions: 30000005 cycles: 8260392 heartbeat IPC: 3.823 cumulative IPC: 3.632 (Simulation time: 00 hr 01 min 22 sec)
Heartbeat CPU 0 instructions: 40000005 cycles: 10847257 heartbeat IPC: 3.866 cumulative IPC: 3.688 (Simulation time: 00 hr 01 min 49 sec)
Warmup finished CPU 0 instructions: 50000001 cycles: 13430499 cumulative IPC: 3.723 (Simulation time: 00 hr 02 min 16 sec)
Warmup complete CPU 0 instructions: 50000001 cycles: 13430499 cumulative IPC: 3.723 (Simulation time: 00 hr 02 min 16 sec)
Heartbeat CPU 0 instructions: 50000006 cycles: 13430500 heartbeat IPC: 3.871 cumulative IPC: 5 (Simulation time: 00 hr 02 min 16 sec)
Heartbeat CPU 0 instructions: 60000007 cycles: 20947721 heartbeat IPC: 1.33 cumulative IPC: 1.33 (Simulation time: 00 hr 02 min 54 sec)
Heartbeat CPU 0 instructions: 70000010 cycles: 28665315 heartbeat IPC: 1.296 cumulative IPC: 1.313 (Simulation time: 00 hr 03 min 31 sec)
Heartbeat CPU 0 instructions: 80000010 cycles: 36260014 heartbeat IPC: 1.317 cumulative IPC: 1.314 (Simulation time: 00 hr 04 min 08 sec)
Heartbeat CPU 0 instructions: 90000013 cycles: 43927540 heartbeat IPC: 1.304 cumulative IPC: 1.312 (Simulation time: 00 hr 04 min 45 sec)
Heartbeat CPU 0 instructions: 100000015 cycles: 51520238 heartbeat IPC: 1.317 cumulative IPC: 1.313 (Simulation time: 00 hr 05 min 23 sec)
Heartbeat CPU 0 instructions: 110000015 cycles: 59210485 heartbeat IPC: 1.3 cumulative IPC: 1.311 (Simulation time: 00 hr 06 min 02 sec)
Heartbeat CPU 0 instructions: 120000016 cycles: 66816306 heartbeat IPC: 1.315 cumulative IPC: 1.311 (Simulation time: 00 hr 06 min 40 sec)
Heartbeat CPU 0 instructions: 130000020 cycles: 74466260 heartbeat IPC: 1.307 cumulative IPC: 1.311 (Simulation time: 00 hr 07 min 18 sec)
Heartbeat CPU 0 instructions: 140000022 cycles: 82055819 heartbeat IPC: 1.318 cumulative IPC: 1.311 (Simulation time: 00 hr 07 min 55 sec)
Simulation finished CPU 0 instructions: 100000001 cycles: 76269020 cumulative IPC: 1.311 (Simulation time: 00 hr 08 min 33 sec)
Simulation complete CPU 0 instructions: 100000001 cycles: 76269020 cumulative IPC: 1.311 (Simulation time: 00 hr 08 min 33 sec)

ChampSim completed all CPUs

=== Simulation ===
CPU 0 runs 445.gobmk-17B.champsimtrace.xz

Region of Interest Statistics

CPU 0 cumulative IPC: 1.311 instructions: 100000001 cycles: 76269020
CPU 0 Branch Prediction Accuracy: 86.27% MPKI: 24.34 Average ROB Occupancy at Mispredict: 17.19
Branch type MPKI
BRANCH_DIRECT_JUMP: 0.02599
BRANCH_INDIRECT: 0
BRANCH_CONDITIONAL: 24.25
BRANCH_DIRECT_CALL: 0.07071
BRANCH_INDIRECT_CALL: 0
BRANCH_RETURN: 1e-05

cpu0->cpu0_STLB TOTAL        ACCESS:       4135 HIT:       4072 MISS:         63 MSHR_MERGE:          0
cpu0->cpu0_STLB LOAD         ACCESS:       4135 HIT:       4072 MISS:         63 MSHR_MERGE:          0
cpu0->cpu0_STLB RFO          ACCESS:          0 HIT:          0 MISS:          0 MSHR_MERGE:          0
cpu0->cpu0_STLB PREFETCH     ACCESS:          0 HIT:          0 MISS:          0 MSHR_MERGE:          0
cpu0->cpu0_STLB WRITE        ACCESS:          0 HIT:          0 MISS:          0 MSHR_MERGE:          0
cpu0->cpu0_STLB TRANSLATION  ACCESS:          0 HIT:          0 MISS:          0 MSHR_MERGE:          0
cpu0->cpu0_STLB PREFETCH REQUESTED:          0 ISSUED:          0 USEFUL:          0 USELESS:          0
cpu0->cpu0_STLB AVERAGE MISS LATENCY: 483.5 cycles
cpu0->cpu0_L2C TOTAL        ACCESS:     354129 HIT:     353077 MISS:       1052 MSHR_MERGE:          0
cpu0->cpu0_L2C LOAD         ACCESS:     238732 HIT:     238046 MISS:        686 MSHR_MERGE:          0
cpu0->cpu0_L2C RFO          ACCESS:      52370 HIT:      52139 MISS:        231 MSHR_MERGE:          0
cpu0->cpu0_L2C PREFETCH     ACCESS:          0 HIT:          0 MISS:          0 MSHR_MERGE:          0
cpu0->cpu0_L2C WRITE        ACCESS:      62903 HIT:      62876 MISS:         27 MSHR_MERGE:          0
cpu0->cpu0_L2C TRANSLATION  ACCESS:        124 HIT:         16 MISS:        108 MSHR_MERGE:          0
cpu0->cpu0_L2C PREFETCH REQUESTED:          0 ISSUED:          0 USEFUL:          0 USELESS:          0
cpu0->cpu0_L2C AVERAGE MISS LATENCY: 137.6 cycles
cpu0->cpu0_L1I TOTAL        ACCESS:   13420868 HIT:   13133097 MISS:     287771 MSHR_MERGE:      71646
cpu0->cpu0_L1I LOAD         ACCESS:   13420868 HIT:   13133097 MISS:     287771 MSHR_MERGE:      71646
cpu0->cpu0_L1I RFO          ACCESS:          0 HIT:          0 MISS:          0 MSHR_MERGE:          0
cpu0->cpu0_L1I PREFETCH     ACCESS:          0 HIT:          0 MISS:          0 MSHR_MERGE:          0
cpu0->cpu0_L1I WRITE        ACCESS:          0 HIT:          0 MISS:          0 MSHR_MERGE:          0
cpu0->cpu0_L1I TRANSLATION  ACCESS:          0 HIT:          0 MISS:          0 MSHR_MERGE:          0
cpu0->cpu0_L1I PREFETCH REQUESTED:          0 ISSUED:          0 USEFUL:          0 USELESS:          0
cpu0->cpu0_L1I AVERAGE MISS LATENCY: 7.068 cycles
cpu0->cpu0_L1D TOTAL        ACCESS:   35322074 HIT:   35174841 MISS:     147233 MSHR_MERGE:      72131
cpu0->cpu0_L1D LOAD         ACCESS:   18922042 HIT:   18892227 MISS:      29815 MSHR_MERGE:       7208
cpu0->cpu0_L1D RFO          ACCESS:          0 HIT:          0 MISS:          0 MSHR_MERGE:          0
cpu0->cpu0_L1D PREFETCH     ACCESS:          0 HIT:          0 MISS:          0 MSHR_MERGE:          0
cpu0->cpu0_L1D WRITE        ACCESS:   16399906 HIT:   16282612 MISS:     117294 MSHR_MERGE:      64923
cpu0->cpu0_L1D TRANSLATION  ACCESS:        126 HIT:          2 MISS:        124 MSHR_MERGE:          0
cpu0->cpu0_L1D PREFETCH REQUESTED:          0 ISSUED:          0 USEFUL:          0 USELESS:          0
cpu0->cpu0_L1D AVERAGE MISS LATENCY: 9.953 cycles
cpu0->cpu0_ITLB TOTAL        ACCESS:   11123997 HIT:   11123997 MISS:          0 MSHR_MERGE:          0
cpu0->cpu0_ITLB LOAD         ACCESS:   11123997 HIT:   11123997 MISS:          0 MSHR_MERGE:          0
cpu0->cpu0_ITLB RFO          ACCESS:          0 HIT:          0 MISS:          0 MSHR_MERGE:          0
cpu0->cpu0_ITLB PREFETCH     ACCESS:          0 HIT:          0 MISS:          0 MSHR_MERGE:          0
cpu0->cpu0_ITLB WRITE        ACCESS:          0 HIT:          0 MISS:          0 MSHR_MERGE:          0
cpu0->cpu0_ITLB TRANSLATION  ACCESS:          0 HIT:          0 MISS:          0 MSHR_MERGE:          0
cpu0->cpu0_ITLB PREFETCH REQUESTED:          0 ISSUED:          0 USEFUL:          0 USELESS:          0
cpu0->cpu0_ITLB AVERAGE MISS LATENCY: - cycles
cpu0->cpu0_DTLB TOTAL        ACCESS:   33847978 HIT:   33841681 MISS:       6297 MSHR_MERGE:       2162
cpu0->cpu0_DTLB LOAD         ACCESS:   33847978 HIT:   33841681 MISS:       6297 MSHR_MERGE:       2162
cpu0->cpu0_DTLB RFO          ACCESS:          0 HIT:          0 MISS:          0 MSHR_MERGE:          0
cpu0->cpu0_DTLB PREFETCH     ACCESS:          0 HIT:          0 MISS:          0 MSHR_MERGE:          0
cpu0->cpu0_DTLB WRITE        ACCESS:          0 HIT:          0 MISS:          0 MSHR_MERGE:          0
cpu0->cpu0_DTLB TRANSLATION  ACCESS:          0 HIT:          0 MISS:          0 MSHR_MERGE:          0
cpu0->cpu0_DTLB PREFETCH REQUESTED:          0 ISSUED:          0 USEFUL:          0 USELESS:          0
cpu0->cpu0_DTLB AVERAGE MISS LATENCY: 12.38 cycles
cpu0->LLC TOTAL        ACCESS:       1319 HIT:        470 MISS:        849 MSHR_MERGE:          0
cpu0->LLC LOAD         ACCESS:        686 HIT:         54 MISS:        632 MSHR_MERGE:          0
cpu0->LLC RFO          ACCESS:        231 HIT:        103 MISS:        128 MSHR_MERGE:          0
cpu0->LLC PREFETCH     ACCESS:          0 HIT:          0 MISS:          0 MSHR_MERGE:          0
cpu0->LLC WRITE        ACCESS:        294 HIT:        294 MISS:          0 MSHR_MERGE:          0
cpu0->LLC TRANSLATION  ACCESS:        108 HIT:         19 MISS:         89 MSHR_MERGE:          0
cpu0->LLC PREFETCH REQUESTED:          0 ISSUED:          0 USEFUL:          0 USELESS:          0
cpu0->LLC AVERAGE MISS LATENCY: 151.3 cycles

DRAM Statistics

Channel 0 RQ ROW_BUFFER_HIT:          7
  ROW_BUFFER_MISS:        842
  AVG DBUS CONGESTED CYCLE: 2.832
Channel 0 WQ ROW_BUFFER_HIT:          0
  ROW_BUFFER_MISS:          0
  FULL:          0
Channel 0 REFRESHES ISSUED:       6355
