[VMEM] WARNING: physical memory size is smaller than virtual memory size.

*** ChampSim Multicore Out-of-Order Simulator ***
Warmup Instructions: 50000000
Simulation Instructions: 100000000
Number of CPUs: 1
Page size: 4096

Initialize SIGNATURE TABLE
ST_SET: 1
ST_WAY: 256
ST_TAG_BIT: 16

Initialize PATTERN TABLE
PT_SET: 512
PT_WAY: 4
SIG_DELTA_BIT: 7
C_SIG_BIT: 4
C_DELTA_BIT: 4

Initialize PREFETCH FILTER
FILTER_SET: 1024
Off-chip DRAM Size: 16 GiB Channels: 1 Width: 64-bit Data Rate: 3205 MT/s
Heartbeat CPU 0 instructions: 10000001 cycles: 2536804 heartbeat IPC: 3.942 cumulative IPC: 3.942 (Simulation time: 00 hr 00 min 22 sec)
Heartbeat CPU 0 instructions: 20000004 cycles: 5064859 heartbeat IPC: 3.956 cumulative IPC: 3.949 (Simulation time: 00 hr 00 min 45 sec)
Heartbeat CPU 0 instructions: 30000004 cycles: 7582154 heartbeat IPC: 3.973 cumulative IPC: 3.957 (Simulation time: 00 hr 01 min 08 sec)
Heartbeat CPU 0 instructions: 40000007 cycles: 10097357 heartbeat IPC: 3.976 cumulative IPC: 3.961 (Simulation time: 00 hr 01 min 32 sec)
Warmup finished CPU 0 instructions: 50000003 cycles: 12613249 cumulative IPC: 3.964 (Simulation time: 00 hr 01 min 54 sec)
Warmup complete CPU 0 instructions: 50000003 cycles: 12613249 cumulative IPC: 3.964 (Simulation time: 00 hr 01 min 54 sec)
Heartbeat CPU 0 instructions: 50000007 cycles: 12613250 heartbeat IPC: 3.975 cumulative IPC: 4 (Simulation time: 00 hr 01 min 54 sec)
Heartbeat CPU 0 instructions: 60000008 cycles: 16170578 heartbeat IPC: 2.811 cumulative IPC: 2.811 (Simulation time: 00 hr 02 min 19 sec)
Heartbeat CPU 0 instructions: 70000009 cycles: 19729629 heartbeat IPC: 2.81 cumulative IPC: 2.81 (Simulation time: 00 hr 02 min 43 sec)
Heartbeat CPU 0 instructions: 80000010 cycles: 23278527 heartbeat IPC: 2.818 cumulative IPC: 2.813 (Simulation time: 00 hr 03 min 08 sec)
Heartbeat CPU 0 instructions: 90000011 cycles: 26838178 heartbeat IPC: 2.809 cumulative IPC: 2.812 (Simulation time: 00 hr 03 min 32 sec)
Heartbeat CPU 0 instructions: 100000015 cycles: 30385206 heartbeat IPC: 2.819 cumulative IPC: 2.813 (Simulation time: 00 hr 03 min 57 sec)
Heartbeat CPU 0 instructions: 110000016 cycles: 33907068 heartbeat IPC: 2.839 cumulative IPC: 2.818 (Simulation time: 00 hr 04 min 22 sec)
Heartbeat CPU 0 instructions: 120000017 cycles: 37426923 heartbeat IPC: 2.841 cumulative IPC: 2.821 (Simulation time: 00 hr 04 min 47 sec)
Heartbeat CPU 0 instructions: 130000018 cycles: 40950793 heartbeat IPC: 2.838 cumulative IPC: 2.823 (Simulation time: 00 hr 05 min 11 sec)
Heartbeat CPU 0 instructions: 140000018 cycles: 47846454 heartbeat IPC: 1.45 cumulative IPC: 2.554 (Simulation time: 00 hr 05 min 45 sec)
Simulation finished CPU 0 instructions: 100000003 cycles: 40386825 cumulative IPC: 2.476 (Simulation time: 00 hr 06 min 15 sec)
Simulation complete CPU 0 instructions: 100000003 cycles: 40386825 cumulative IPC: 2.476 (Simulation time: 00 hr 06 min 15 sec)

ChampSim completed all CPUs

=== Simulation ===
CPU 0 runs 625.x264_s-18B.champsimtrace.xz

Region of Interest Statistics

CPU 0 cumulative IPC: 2.476 instructions: 100000003 cycles: 40386825
CPU 0 Branch Prediction Accuracy: 87.37% MPKI: 6.356 Average ROB Occupancy at Mispredict: 61.93
Branch type MPKI
BRANCH_DIRECT_JUMP: 0.00129
BRANCH_INDIRECT: 0.0005
BRANCH_CONDITIONAL: 6.278
BRANCH_DIRECT_CALL: 0.00205
BRANCH_INDIRECT_CALL: 0.01099
BRANCH_RETURN: 0.06297

cpu0->cpu0_STLB TOTAL        ACCESS:      32366 HIT:      31131 MISS:       1235 MSHR_MERGE:          0
cpu0->cpu0_STLB LOAD         ACCESS:      32366 HIT:      31131 MISS:       1235 MSHR_MERGE:          0
cpu0->cpu0_STLB RFO          ACCESS:          0 HIT:          0 MISS:          0 MSHR_MERGE:          0
cpu0->cpu0_STLB PREFETCH     ACCESS:          0 HIT:          0 MISS:          0 MSHR_MERGE:          0
cpu0->cpu0_STLB WRITE        ACCESS:          0 HIT:          0 MISS:          0 MSHR_MERGE:          0
cpu0->cpu0_STLB TRANSLATION  ACCESS:          0 HIT:          0 MISS:          0 MSHR_MERGE:          0
cpu0->cpu0_STLB PREFETCH REQUESTED:          0 ISSUED:          0 USEFUL:          0 USELESS:          0
cpu0->cpu0_STLB AVERAGE MISS LATENCY: 798.3 cycles
cpu0->cpu0_L2C TOTAL        ACCESS:     465342 HIT:      94859 MISS:     370483 MSHR_MERGE:      20068
cpu0->cpu0_L2C LOAD         ACCESS:     106623 HIT:      50183 MISS:      56440 MSHR_MERGE:       1549
cpu0->cpu0_L2C RFO          ACCESS:       9585 HIT:       1069 MISS:       8516 MSHR_MERGE:          0
cpu0->cpu0_L2C PREFETCH     ACCESS:     331869 HIT:      39231 MISS:     292638 MSHR_MERGE:      18519
cpu0->cpu0_L2C WRITE        ACCESS:      15078 HIT:       4374 MISS:      10704 MSHR_MERGE:          0
cpu0->cpu0_L2C TRANSLATION  ACCESS:       2187 HIT:          2 MISS:       2185 MSHR_MERGE:          0
cpu0->cpu0_L2C PREFETCH REQUESTED:     336029 ISSUED:     331869 USEFUL:      23699 USELESS:        848
cpu0->cpu0_L2C AVERAGE MISS LATENCY: 59.99 cycles
cpu0->cpu0_L1I TOTAL        ACCESS:    8355360 HIT:    8287813 MISS:      67547 MSHR_MERGE:      24734
cpu0->cpu0_L1I LOAD         ACCESS:    8355360 HIT:    8287813 MISS:      67547 MSHR_MERGE:      24734
cpu0->cpu0_L1I RFO          ACCESS:          0 HIT:          0 MISS:          0 MSHR_MERGE:          0
cpu0->cpu0_L1I PREFETCH     ACCESS:          0 HIT:          0 MISS:          0 MSHR_MERGE:          0
cpu0->cpu0_L1I WRITE        ACCESS:          0 HIT:          0 MISS:          0 MSHR_MERGE:          0
cpu0->cpu0_L1I TRANSLATION  ACCESS:          0 HIT:          0 MISS:          0 MSHR_MERGE:          0
cpu0->cpu0_L1I PREFETCH REQUESTED:          0 ISSUED:          0 USEFUL:          0 USELESS:          0
cpu0->cpu0_L1I AVERAGE MISS LATENCY: 18.93 cycles
cpu0->cpu0_L1D TOTAL        ACCESS:   21239843 HIT:   21068911 MISS:     170932 MSHR_MERGE:      95350
cpu0->cpu0_L1D LOAD         ACCESS:   14672287 HIT:   14556473 MISS:     115814 MSHR_MERGE:      52004
cpu0->cpu0_L1D RFO          ACCESS:          0 HIT:          0 MISS:          0 MSHR_MERGE:          0
cpu0->cpu0_L1D PREFETCH     ACCESS:          0 HIT:          0 MISS:          0 MSHR_MERGE:          0
cpu0->cpu0_L1D WRITE        ACCESS:    6565061 HIT:    6512206 MISS:      52855 MSHR_MERGE:      43270
cpu0->cpu0_L1D TRANSLATION  ACCESS:       2495 HIT:        232 MISS:       2263 MSHR_MERGE:         76
cpu0->cpu0_L1D PREFETCH REQUESTED:          0 ISSUED:          0 USEFUL:          0 USELESS:          0
cpu0->cpu0_L1D AVERAGE MISS LATENCY: 63.44 cycles
cpu0->cpu0_ITLB TOTAL        ACCESS:    7485588 HIT:    7484538 MISS:       1050 MSHR_MERGE:        698
cpu0->cpu0_ITLB LOAD         ACCESS:    7485588 HIT:    7484538 MISS:       1050 MSHR_MERGE:        698
cpu0->cpu0_ITLB RFO          ACCESS:          0 HIT:          0 MISS:          0 MSHR_MERGE:          0
cpu0->cpu0_ITLB PREFETCH     ACCESS:          0 HIT:          0 MISS:          0 MSHR_MERGE:          0
cpu0->cpu0_ITLB WRITE        ACCESS:          0 HIT:          0 MISS:          0 MSHR_MERGE:          0
cpu0->cpu0_ITLB TRANSLATION  ACCESS:          0 HIT:          0 MISS:          0 MSHR_MERGE:          0
cpu0->cpu0_ITLB PREFETCH REQUESTED:          0 ISSUED:          0 USEFUL:          0 USELESS:          0
cpu0->cpu0_ITLB AVERAGE MISS LATENCY: 154.7 cycles
cpu0->cpu0_DTLB TOTAL        ACCESS:   20198533 HIT:   20131770 MISS:      66763 MSHR_MERGE:      34749
cpu0->cpu0_DTLB LOAD         ACCESS:   20198533 HIT:   20131770 MISS:      66763 MSHR_MERGE:      34749
cpu0->cpu0_DTLB RFO          ACCESS:          0 HIT:          0 MISS:          0 MSHR_MERGE:          0
cpu0->cpu0_DTLB PREFETCH     ACCESS:          0 HIT:          0 MISS:          0 MSHR_MERGE:          0
cpu0->cpu0_DTLB WRITE        ACCESS:          0 HIT:          0 MISS:          0 MSHR_MERGE:          0
cpu0->cpu0_DTLB TRANSLATION  ACCESS:          0 HIT:          0 MISS:          0 MSHR_MERGE:          0
cpu0->cpu0_DTLB PREFETCH REQUESTED:          0 ISSUED:          0 USEFUL:          0 USELESS:          0
cpu0->cpu0_DTLB AVERAGE MISS LATENCY: 34.19 cycles
cpu0->LLC TOTAL        ACCESS:     350464 HIT:     268436 MISS:      82028 MSHR_MERGE:      20520
cpu0->LLC LOAD         ACCESS:      54891 HIT:      45438 MISS:       9453 MSHR_MERGE:       2011
cpu0->LLC RFO          ACCESS:       8516 HIT:        447 MISS:       8069 MSHR_MERGE:          0
cpu0->LLC PREFETCH     ACCESS:     273827 HIT:     211510 MISS:      62317 MSHR_MERGE:      18509
cpu0->LLC WRITE        ACCESS:      11045 HIT:      11003 MISS:         42 MSHR_MERGE:          0
cpu0->LLC TRANSLATION  ACCESS:       2185 HIT:         38 MISS:       2147 MSHR_MERGE:          0
cpu0->LLC PREFETCH REQUESTED:          0 ISSUED:          0 USEFUL:          0 USELESS:          0
cpu0->LLC AVERAGE MISS LATENCY: 175.4 cycles

DRAM Statistics

Channel 0 RQ ROW_BUFFER_HIT:       2064
  ROW_BUFFER_MISS:      59402
  AVG DBUS CONGESTED CYCLE: 5.986
Channel 0 WQ ROW_BUFFER_HIT:        378
  ROW_BUFFER_MISS:       1413
  FULL:          0
Channel 0 REFRESHES ISSUED:       3365
