[VMEM] WARNING: physical memory size is smaller than virtual memory size.

*** ChampSim Multicore Out-of-Order Simulator ***
Warmup Instructions: 50000000
Simulation Instructions: 100000000
Number of CPUs: 1
Page size: 4096

Initialize SIGNATURE TABLE
ST_SET: 1
ST_WAY: 256
ST_TAG_BIT: 16

Initialize PATTERN TABLE
PT_SET: 512
PT_WAY: 4
SIG_DELTA_BIT: 7
C_SIG_BIT: 4
C_DELTA_BIT: 4

Initialize PREFETCH FILTER
FILTER_SET: 1024
Off-chip DRAM Size: 16 GiB Channels: 1 Width: 64-bit Data Rate: 3205 MT/s
Heartbeat CPU 0 instructions: 10000001 cycles: 2536804 heartbeat IPC: 3.942 cumulative IPC: 3.942 (Simulation time: 00 hr 00 min 23 sec)
Heartbeat CPU 0 instructions: 20000004 cycles: 5064859 heartbeat IPC: 3.956 cumulative IPC: 3.949 (Simulation time: 00 hr 00 min 46 sec)
Heartbeat CPU 0 instructions: 30000004 cycles: 7582204 heartbeat IPC: 3.972 cumulative IPC: 3.957 (Simulation time: 00 hr 01 min 09 sec)
Heartbeat CPU 0 instructions: 40000007 cycles: 10097407 heartbeat IPC: 3.976 cumulative IPC: 3.961 (Simulation time: 00 hr 01 min 31 sec)
Warmup finished CPU 0 instructions: 50000003 cycles: 12613299 cumulative IPC: 3.964 (Simulation time: 00 hr 01 min 55 sec)
Warmup complete CPU 0 instructions: 50000003 cycles: 12613299 cumulative IPC: 3.964 (Simulation time: 00 hr 01 min 55 sec)
Heartbeat CPU 0 instructions: 50000007 cycles: 12613300 heartbeat IPC: 3.975 cumulative IPC: 4 (Simulation time: 00 hr 01 min 55 sec)
Heartbeat CPU 0 instructions: 60000008 cycles: 16170186 heartbeat IPC: 2.811 cumulative IPC: 2.811 (Simulation time: 00 hr 02 min 19 sec)
Heartbeat CPU 0 instructions: 70000009 cycles: 19723516 heartbeat IPC: 2.814 cumulative IPC: 2.813 (Simulation time: 00 hr 02 min 44 sec)
Heartbeat CPU 0 instructions: 80000010 cycles: 23267471 heartbeat IPC: 2.822 cumulative IPC: 2.816 (Simulation time: 00 hr 03 min 08 sec)
Heartbeat CPU 0 instructions: 90000011 cycles: 26828710 heartbeat IPC: 2.808 cumulative IPC: 2.814 (Simulation time: 00 hr 03 min 32 sec)
Heartbeat CPU 0 instructions: 100000015 cycles: 30368409 heartbeat IPC: 2.825 cumulative IPC: 2.816 (Simulation time: 00 hr 03 min 56 sec)
Heartbeat CPU 0 instructions: 110000016 cycles: 33888291 heartbeat IPC: 2.841 cumulative IPC: 2.82 (Simulation time: 00 hr 04 min 20 sec)
Heartbeat CPU 0 instructions: 120000017 cycles: 37400253 heartbeat IPC: 2.847 cumulative IPC: 2.824 (Simulation time: 00 hr 04 min 44 sec)
Heartbeat CPU 0 instructions: 130000018 cycles: 40920680 heartbeat IPC: 2.841 cumulative IPC: 2.826 (Simulation time: 00 hr 05 min 08 sec)
Heartbeat CPU 0 instructions: 140000020 cycles: 47814648 heartbeat IPC: 1.451 cumulative IPC: 2.557 (Simulation time: 00 hr 05 min 41 sec)
Simulation finished CPU 0 instructions: 100000003 cycles: 40315755 cumulative IPC: 2.48 (Simulation time: 00 hr 06 min 10 sec)
Simulation complete CPU 0 instructions: 100000003 cycles: 40315755 cumulative IPC: 2.48 (Simulation time: 00 hr 06 min 10 sec)

ChampSim completed all CPUs

=== Simulation ===
CPU 0 runs 625.x264_s-18B.champsimtrace.xz

Region of Interest Statistics

CPU 0 cumulative IPC: 2.48 instructions: 100000003 cycles: 40315755
CPU 0 Branch Prediction Accuracy: 87.37% MPKI: 6.356 Average ROB Occupancy at Mispredict: 61.92
Branch type MPKI
BRANCH_DIRECT_JUMP: 0.00129
BRANCH_INDIRECT: 0.0005
BRANCH_CONDITIONAL: 6.278
BRANCH_DIRECT_CALL: 0.00205
BRANCH_INDIRECT_CALL: 0.01099
BRANCH_RETURN: 0.06297

cpu0->cpu0_STLB TOTAL        ACCESS:      32365 HIT:      31130 MISS:       1235 MSHR_MERGE:          0
cpu0->cpu0_STLB LOAD         ACCESS:      32365 HIT:      31130 MISS:       1235 MSHR_MERGE:          0
cpu0->cpu0_STLB RFO          ACCESS:          0 HIT:          0 MISS:          0 MSHR_MERGE:          0
cpu0->cpu0_STLB PREFETCH     ACCESS:          0 HIT:          0 MISS:          0 MSHR_MERGE:          0
cpu0->cpu0_STLB WRITE        ACCESS:          0 HIT:          0 MISS:          0 MSHR_MERGE:          0
cpu0->cpu0_STLB TRANSLATION  ACCESS:          0 HIT:          0 MISS:          0 MSHR_MERGE:          0
cpu0->cpu0_STLB PREFETCH REQUESTED:          0 ISSUED:          0 USEFUL:          0 USELESS:          0
cpu0->cpu0_STLB AVERAGE MISS LATENCY: 796.2 cycles
cpu0->cpu0_L2C TOTAL        ACCESS:     484645 HIT:     125176 MISS:     359469 MSHR_MERGE:      14174
cpu0->cpu0_L2C LOAD         ACCESS:     106605 HIT:      61927 MISS:      44678 MSHR_MERGE:       1482
cpu0->cpu0_L2C RFO          ACCESS:       9586 HIT:       1192 MISS:       8394 MSHR_MERGE:          0
cpu0->cpu0_L2C PREFETCH     ACCESS:     351196 HIT:      55561 MISS:     295635 MSHR_MERGE:      12692
cpu0->cpu0_L2C WRITE        ACCESS:      15072 HIT:       6490 MISS:       8582 MSHR_MERGE:          0
cpu0->cpu0_L2C TRANSLATION  ACCESS:       2186 HIT:          6 MISS:       2180 MSHR_MERGE:          0
cpu0->cpu0_L2C PREFETCH REQUESTED:     359495 ISSUED:     351196 USEFUL:      23208 USELESS:        612
cpu0->cpu0_L2C AVERAGE MISS LATENCY: 69.47 cycles
cpu0->cpu0_L1I TOTAL        ACCESS:    8356131 HIT:    8289376 MISS:      66755 MSHR_MERGE:      23928
cpu0->cpu0_L1I LOAD         ACCESS:    8356131 HIT:    8289376 MISS:      66755 MSHR_MERGE:      23928
cpu0->cpu0_L1I RFO          ACCESS:          0 HIT:          0 MISS:          0 MSHR_MERGE:          0
cpu0->cpu0_L1I PREFETCH     ACCESS:          0 HIT:          0 MISS:          0 MSHR_MERGE:          0
cpu0->cpu0_L1I WRITE        ACCESS:          0 HIT:          0 MISS:          0 MSHR_MERGE:          0
cpu0->cpu0_L1I TRANSLATION  ACCESS:          0 HIT:          0 MISS:          0 MSHR_MERGE:          0
cpu0->cpu0_L1I PREFETCH REQUESTED:          0 ISSUED:          0 USEFUL:          0 USELESS:          0
cpu0->cpu0_L1I AVERAGE MISS LATENCY: 15.3 cycles
cpu0->cpu0_L1D TOTAL        ACCESS:   21237632 HIT:   21067001 MISS:     170631 MSHR_MERGE:      95080
cpu0->cpu0_L1D LOAD         ACCESS:   14670037 HIT:   14554353 MISS:     115684 MSHR_MERGE:      51906
cpu0->cpu0_L1D RFO          ACCESS:          0 HIT:          0 MISS:          0 MSHR_MERGE:          0
cpu0->cpu0_L1D PREFETCH     ACCESS:          0 HIT:          0 MISS:          0 MSHR_MERGE:          0
cpu0->cpu0_L1D WRITE        ACCESS:    6565101 HIT:    6512415 MISS:      52686 MSHR_MERGE:      43099
cpu0->cpu0_L1D TRANSLATION  ACCESS:       2494 HIT:        233 MISS:       2261 MSHR_MERGE:         75
cpu0->cpu0_L1D PREFETCH REQUESTED:          0 ISSUED:          0 USEFUL:          0 USELESS:          0
cpu0->cpu0_L1D AVERAGE MISS LATENCY: 62.37 cycles
cpu0->cpu0_ITLB TOTAL        ACCESS:    7486351 HIT:    7485311 MISS:       1040 MSHR_MERGE:        688
cpu0->cpu0_ITLB LOAD         ACCESS:    7486351 HIT:    7485311 MISS:       1040 MSHR_MERGE:        688
cpu0->cpu0_ITLB RFO          ACCESS:          0 HIT:          0 MISS:          0 MSHR_MERGE:          0
cpu0->cpu0_ITLB PREFETCH     ACCESS:          0 HIT:          0 MISS:          0 MSHR_MERGE:          0
cpu0->cpu0_ITLB WRITE        ACCESS:          0 HIT:          0 MISS:          0 MSHR_MERGE:          0
cpu0->cpu0_ITLB TRANSLATION  ACCESS:          0 HIT:          0 MISS:          0 MSHR_MERGE:          0
cpu0->cpu0_ITLB PREFETCH REQUESTED:          0 ISSUED:          0 USEFUL:          0 USELESS:          0
cpu0->cpu0_ITLB AVERAGE MISS LATENCY: 155.7 cycles
cpu0->cpu0_DTLB TOTAL        ACCESS:   20196531 HIT:   20129828 MISS:      66703 MSHR_MERGE:      34690
cpu0->cpu0_DTLB LOAD         ACCESS:   20196531 HIT:   20129828 MISS:      66703 MSHR_MERGE:      34690
cpu0->cpu0_DTLB RFO          ACCESS:          0 HIT:          0 MISS:          0 MSHR_MERGE:          0
cpu0->cpu0_DTLB PREFETCH     ACCESS:          0 HIT:          0 MISS:          0 MSHR_MERGE:          0
cpu0->cpu0_DTLB WRITE        ACCESS:          0 HIT:          0 MISS:          0 MSHR_MERGE:          0
cpu0->cpu0_DTLB TRANSLATION  ACCESS:          0 HIT:          0 MISS:          0 MSHR_MERGE:          0
cpu0->cpu0_DTLB PREFETCH REQUESTED:          0 ISSUED:          0 USEFUL:          0 USELESS:          0
cpu0->cpu0_DTLB AVERAGE MISS LATENCY: 34.1 cycles
cpu0->LLC TOTAL        ACCESS:     346122 HIT:     262342 MISS:      83780 MSHR_MERGE:      22251
cpu0->LLC LOAD         ACCESS:      43196 HIT:      33952 MISS:       9244 MSHR_MERGE:       1940
cpu0->LLC RFO          ACCESS:       8394 HIT:        325 MISS:       8069 MSHR_MERGE:          0
cpu0->LLC PREFETCH     ACCESS:     282726 HIT:     218465 MISS:      64261 MSHR_MERGE:      20311
cpu0->LLC WRITE        ACCESS:       9626 HIT:       9566 MISS:         60 MSHR_MERGE:          0
cpu0->LLC TRANSLATION  ACCESS:       2180 HIT:         34 MISS:       2146 MSHR_MERGE:          0
cpu0->LLC PREFETCH REQUESTED:          0 ISSUED:          0 USEFUL:          0 USELESS:          0
cpu0->LLC AVERAGE MISS LATENCY: 174.6 cycles

DRAM Statistics

Channel 0 RQ ROW_BUFFER_HIT:       2109
  ROW_BUFFER_MISS:      59360
  AVG DBUS CONGESTED CYCLE: 5.948
Channel 0 WQ ROW_BUFFER_HIT:        358
  ROW_BUFFER_MISS:       1457
  FULL:          0
Channel 0 REFRESHES ISSUED:       3359
