[VMEM] WARNING: physical memory size is smaller than virtual memory size.

*** ChampSim Multicore Out-of-Order Simulator ***
Warmup Instructions: 50000000
Simulation Instructions: 100000000
Number of CPUs: 1
Page size: 4096

Initialize SIGNATURE TABLE
ST_SET: 1
ST_WAY: 256
ST_TAG_BIT: 16

Initialize PATTERN TABLE
PT_SET: 512
PT_WAY: 4
SIG_DELTA_BIT: 7
C_SIG_BIT: 4
C_DELTA_BIT: 4

Initialize PREFETCH FILTER
FILTER_SET: 1024
Off-chip DRAM Size: 16 GiB Channels: 1 Width: 64-bit Data Rate: 3205 MT/s
Heartbeat CPU 0 instructions: 10000001 cycles: 2536802 heartbeat IPC: 3.942 cumulative IPC: 3.942 (Simulation time: 00 hr 00 min 22 sec)
Heartbeat CPU 0 instructions: 20000004 cycles: 5064869 heartbeat IPC: 3.956 cumulative IPC: 3.949 (Simulation time: 00 hr 00 min 45 sec)
Heartbeat CPU 0 instructions: 30000004 cycles: 7582214 heartbeat IPC: 3.972 cumulative IPC: 3.957 (Simulation time: 00 hr 01 min 09 sec)
Heartbeat CPU 0 instructions: 40000007 cycles: 10097417 heartbeat IPC: 3.976 cumulative IPC: 3.961 (Simulation time: 00 hr 01 min 33 sec)
Warmup finished CPU 0 instructions: 50000003 cycles: 12613309 cumulative IPC: 3.964 (Simulation time: 00 hr 01 min 56 sec)
Warmup complete CPU 0 instructions: 50000003 cycles: 12613309 cumulative IPC: 3.964 (Simulation time: 00 hr 01 min 56 sec)
Heartbeat CPU 0 instructions: 50000007 cycles: 12613310 heartbeat IPC: 3.975 cumulative IPC: 4 (Simulation time: 00 hr 01 min 56 sec)
Heartbeat CPU 0 instructions: 60000008 cycles: 16166923 heartbeat IPC: 2.814 cumulative IPC: 2.814 (Simulation time: 00 hr 02 min 20 sec)
Heartbeat CPU 0 instructions: 70000009 cycles: 19718956 heartbeat IPC: 2.815 cumulative IPC: 2.815 (Simulation time: 00 hr 02 min 44 sec)
Heartbeat CPU 0 instructions: 80000010 cycles: 23265983 heartbeat IPC: 2.819 cumulative IPC: 2.816 (Simulation time: 00 hr 03 min 10 sec)
Heartbeat CPU 0 instructions: 90000011 cycles: 26826109 heartbeat IPC: 2.809 cumulative IPC: 2.814 (Simulation time: 00 hr 03 min 38 sec)
Heartbeat CPU 0 instructions: 100000015 cycles: 30371235 heartbeat IPC: 2.821 cumulative IPC: 2.816 (Simulation time: 00 hr 04 min 03 sec)
Heartbeat CPU 0 instructions: 110000016 cycles: 33880878 heartbeat IPC: 2.849 cumulative IPC: 2.821 (Simulation time: 00 hr 04 min 28 sec)
Heartbeat CPU 0 instructions: 120000017 cycles: 37385033 heartbeat IPC: 2.854 cumulative IPC: 2.826 (Simulation time: 00 hr 04 min 53 sec)
Heartbeat CPU 0 instructions: 130000018 cycles: 40895975 heartbeat IPC: 2.848 cumulative IPC: 2.829 (Simulation time: 00 hr 05 min 17 sec)
Heartbeat CPU 0 instructions: 140000018 cycles: 47786664 heartbeat IPC: 1.451 cumulative IPC: 2.559 (Simulation time: 00 hr 05 min 51 sec)
Simulation finished CPU 0 instructions: 100000003 cycles: 40269090 cumulative IPC: 2.483 (Simulation time: 00 hr 06 min 20 sec)
Simulation complete CPU 0 instructions: 100000003 cycles: 40269090 cumulative IPC: 2.483 (Simulation time: 00 hr 06 min 20 sec)

ChampSim completed all CPUs

=== Simulation ===
CPU 0 runs 625.x264_s-18B.champsimtrace.xz

Region of Interest Statistics

CPU 0 cumulative IPC: 2.483 instructions: 100000003 cycles: 40269090
CPU 0 Branch Prediction Accuracy: 87.37% MPKI: 6.356 Average ROB Occupancy at Mispredict: 61.89
Branch type MPKI
BRANCH_DIRECT_JUMP: 0.00129
BRANCH_INDIRECT: 0.0005
BRANCH_CONDITIONAL: 6.278
BRANCH_DIRECT_CALL: 0.00205
BRANCH_INDIRECT_CALL: 0.01099
BRANCH_RETURN: 0.06297

cpu0->cpu0_STLB TOTAL        ACCESS:      32365 HIT:      31130 MISS:       1235 MSHR_MERGE:          0
cpu0->cpu0_STLB LOAD         ACCESS:      32365 HIT:      31130 MISS:       1235 MSHR_MERGE:          0
cpu0->cpu0_STLB RFO          ACCESS:          0 HIT:          0 MISS:          0 MSHR_MERGE:          0
cpu0->cpu0_STLB PREFETCH     ACCESS:          0 HIT:          0 MISS:          0 MSHR_MERGE:          0
cpu0->cpu0_STLB WRITE        ACCESS:          0 HIT:          0 MISS:          0 MSHR_MERGE:          0
cpu0->cpu0_STLB TRANSLATION  ACCESS:          0 HIT:          0 MISS:          0 MSHR_MERGE:          0
cpu0->cpu0_STLB PREFETCH REQUESTED:          0 ISSUED:          0 USEFUL:          0 USELESS:          0
cpu0->cpu0_STLB AVERAGE MISS LATENCY: 796.3 cycles
cpu0->cpu0_L2C TOTAL        ACCESS:     503080 HIT:     150011 MISS:     353069 MSHR_MERGE:      11003
cpu0->cpu0_L2C LOAD         ACCESS:     106624 HIT:      69329 MISS:      37295 MSHR_MERGE:       1462
cpu0->cpu0_L2C RFO          ACCESS:       9584 HIT:       1270 MISS:       8314 MSHR_MERGE:          0
cpu0->cpu0_L2C PREFETCH     ACCESS:     369610 HIT:      70590 MISS:     299020 MSHR_MERGE:       9541
cpu0->cpu0_L2C WRITE        ACCESS:      15075 HIT:       8805 MISS:       6270 MSHR_MERGE:          0
cpu0->cpu0_L2C TRANSLATION  ACCESS:       2187 HIT:         17 MISS:       2170 MSHR_MERGE:          0
cpu0->cpu0_L2C PREFETCH REQUESTED:     381511 ISSUED:     369610 USEFUL:      22801 USELESS:        428
cpu0->cpu0_L2C AVERAGE MISS LATENCY: 79.28 cycles
cpu0->cpu0_L1I TOTAL        ACCESS:    8357944 HIT:    8291130 MISS:      66814 MSHR_MERGE:      23978
cpu0->cpu0_L1I LOAD         ACCESS:    8357944 HIT:    8291130 MISS:      66814 MSHR_MERGE:      23978
cpu0->cpu0_L1I RFO          ACCESS:          0 HIT:          0 MISS:          0 MSHR_MERGE:          0
cpu0->cpu0_L1I PREFETCH     ACCESS:          0 HIT:          0 MISS:          0 MSHR_MERGE:          0
cpu0->cpu0_L1I WRITE        ACCESS:          0 HIT:          0 MISS:          0 MSHR_MERGE:          0
cpu0->cpu0_L1I TRANSLATION  ACCESS:          0 HIT:          0 MISS:          0 MSHR_MERGE:          0
cpu0->cpu0_L1I PREFETCH REQUESTED:          0 ISSUED:          0 USEFUL:          0 USELESS:          0
cpu0->cpu0_L1I AVERAGE MISS LATENCY: 13.41 cycles
cpu0->cpu0_L1D TOTAL        ACCESS:   21235064 HIT:   21064583 MISS:     170481 MSHR_MERGE:      94922
cpu0->cpu0_L1D LOAD         ACCESS:   14667533 HIT:   14552125 MISS:     115408 MSHR_MERGE:      51620
cpu0->cpu0_L1D RFO          ACCESS:          0 HIT:          0 MISS:          0 MSHR_MERGE:          0
cpu0->cpu0_L1D PREFETCH     ACCESS:          0 HIT:          0 MISS:          0 MSHR_MERGE:          0
cpu0->cpu0_L1D WRITE        ACCESS:    6565036 HIT:    6512227 MISS:      52809 MSHR_MERGE:      43225
cpu0->cpu0_L1D TRANSLATION  ACCESS:       2495 HIT:        231 MISS:       2264 MSHR_MERGE:         77
cpu0->cpu0_L1D PREFETCH REQUESTED:          0 ISSUED:          0 USEFUL:          0 USELESS:          0
cpu0->cpu0_L1D AVERAGE MISS LATENCY: 61.49 cycles
cpu0->cpu0_ITLB TOTAL        ACCESS:    7487491 HIT:    7486447 MISS:       1044 MSHR_MERGE:        692
cpu0->cpu0_ITLB LOAD         ACCESS:    7487491 HIT:    7486447 MISS:       1044 MSHR_MERGE:        692
cpu0->cpu0_ITLB RFO          ACCESS:          0 HIT:          0 MISS:          0 MSHR_MERGE:          0
cpu0->cpu0_ITLB PREFETCH     ACCESS:          0 HIT:          0 MISS:          0 MSHR_MERGE:          0
cpu0->cpu0_ITLB WRITE        ACCESS:          0 HIT:          0 MISS:          0 MSHR_MERGE:          0
cpu0->cpu0_ITLB TRANSLATION  ACCESS:          0 HIT:          0 MISS:          0 MSHR_MERGE:          0
cpu0->cpu0_ITLB PREFETCH REQUESTED:          0 ISSUED:          0 USEFUL:          0 USELESS:          0
cpu0->cpu0_ITLB AVERAGE MISS LATENCY: 153.8 cycles
cpu0->cpu0_DTLB TOTAL        ACCESS:   20194003 HIT:   20127228 MISS:      66775 MSHR_MERGE:      34762
cpu0->cpu0_DTLB LOAD         ACCESS:   20194003 HIT:   20127228 MISS:      66775 MSHR_MERGE:      34762
cpu0->cpu0_DTLB RFO          ACCESS:          0 HIT:          0 MISS:          0 MSHR_MERGE:          0
cpu0->cpu0_DTLB PREFETCH     ACCESS:          0 HIT:          0 MISS:          0 MSHR_MERGE:          0
cpu0->cpu0_DTLB WRITE        ACCESS:          0 HIT:          0 MISS:          0 MSHR_MERGE:          0
cpu0->cpu0_DTLB TRANSLATION  ACCESS:          0 HIT:          0 MISS:          0 MSHR_MERGE:          0
cpu0->cpu0_DTLB PREFETCH REQUESTED:          0 ISSUED:          0 USEFUL:          0 USELESS:          0
cpu0->cpu0_DTLB AVERAGE MISS LATENCY: 34.12 cycles
cpu0->LLC TOTAL        ACCESS:     343695 HIT:     258777 MISS:      84918 MSHR_MERGE:      23526
cpu0->LLC LOAD         ACCESS:      35833 HIT:      26831 MISS:       9002 MSHR_MERGE:       1827
cpu0->LLC RFO          ACCESS:       8314 HIT:        253 MISS:       8061 MSHR_MERGE:          1
cpu0->LLC PREFETCH     ACCESS:     289326 HIT:     223716 MISS:      65610 MSHR_MERGE:      21698
cpu0->LLC WRITE        ACCESS:       8052 HIT:       7953 MISS:         99 MSHR_MERGE:          0
cpu0->LLC TRANSLATION  ACCESS:       2170 HIT:         24 MISS:       2146 MSHR_MERGE:          0
cpu0->LLC PREFETCH REQUESTED:          0 ISSUED:          0 USEFUL:          0 USELESS:          0
cpu0->LLC AVERAGE MISS LATENCY: 175.2 cycles

DRAM Statistics

Channel 0 RQ ROW_BUFFER_HIT:       2096
  ROW_BUFFER_MISS:      59197
  AVG DBUS CONGESTED CYCLE: 5.894
Channel 0 WQ ROW_BUFFER_HIT:        410
  ROW_BUFFER_MISS:       1434
  FULL:          0
Channel 0 REFRESHES ISSUED:       3355
