[VMEM] WARNING: physical memory size is smaller than virtual memory size.

*** ChampSim Multicore Out-of-Order Simulator ***
Warmup Instructions: 50000000
Simulation Instructions: 100000000
Number of CPUs: 1
Page size: 4096

Initialize SIGNATURE TABLE
ST_SET: 1
ST_WAY: 256
ST_TAG_BIT: 16

Initialize PATTERN TABLE
PT_SET: 512
PT_WAY: 4
SIG_DELTA_BIT: 7
C_SIG_BIT: 4
C_DELTA_BIT: 4

Initialize PREFETCH FILTER
FILTER_SET: 1024
Off-chip DRAM Size: 16 GiB Channels: 1 Width: 64-bit Data Rate: 3205 MT/s
Heartbeat CPU 0 instructions: 10000000 cycles: 2940583 heartbeat IPC: 3.401 cumulative IPC: 3.401 (Simulation time: 00 hr 00 min 28 sec)
Heartbeat CPU 0 instructions: 20000002 cycles: 5644279 heartbeat IPC: 3.699 cumulative IPC: 3.543 (Simulation time: 00 hr 00 min 56 sec)
Heartbeat CPU 0 instructions: 30000005 cycles: 8260202 heartbeat IPC: 3.823 cumulative IPC: 3.632 (Simulation time: 00 hr 01 min 24 sec)
Heartbeat CPU 0 instructions: 40000005 cycles: 10847067 heartbeat IPC: 3.866 cumulative IPC: 3.688 (Simulation time: 00 hr 01 min 50 sec)
Warmup finished CPU 0 instructions: 50000001 cycles: 13430309 cumulative IPC: 3.723 (Simulation time: 00 hr 02 min 17 sec)
Warmup complete CPU 0 instructions: 50000001 cycles: 13430309 cumulative IPC: 3.723 (Simulation time: 00 hr 02 min 17 sec)
Heartbeat CPU 0 instructions: 50000006 cycles: 13430310 heartbeat IPC: 3.871 cumulative IPC: 5 (Simulation time: 00 hr 02 min 17 sec)
Heartbeat CPU 0 instructions: 60000007 cycles: 20943589 heartbeat IPC: 1.331 cumulative IPC: 1.331 (Simulation time: 00 hr 02 min 54 sec)
Heartbeat CPU 0 instructions: 70000010 cycles: 28660210 heartbeat IPC: 1.296 cumulative IPC: 1.313 (Simulation time: 00 hr 03 min 32 sec)
Heartbeat CPU 0 instructions: 80000010 cycles: 36253925 heartbeat IPC: 1.317 cumulative IPC: 1.314 (Simulation time: 00 hr 04 min 10 sec)
Heartbeat CPU 0 instructions: 90000013 cycles: 43920258 heartbeat IPC: 1.304 cumulative IPC: 1.312 (Simulation time: 00 hr 04 min 47 sec)
Heartbeat CPU 0 instructions: 100000015 cycles: 51509013 heartbeat IPC: 1.318 cumulative IPC: 1.313 (Simulation time: 00 hr 05 min 25 sec)
Heartbeat CPU 0 instructions: 110000015 cycles: 59191614 heartbeat IPC: 1.302 cumulative IPC: 1.311 (Simulation time: 00 hr 06 min 03 sec)
Heartbeat CPU 0 instructions: 120000016 cycles: 66796556 heartbeat IPC: 1.315 cumulative IPC: 1.312 (Simulation time: 00 hr 06 min 41 sec)
Heartbeat CPU 0 instructions: 130000020 cycles: 74443444 heartbeat IPC: 1.308 cumulative IPC: 1.311 (Simulation time: 00 hr 07 min 19 sec)
Heartbeat CPU 0 instructions: 140000022 cycles: 82031226 heartbeat IPC: 1.318 cumulative IPC: 1.312 (Simulation time: 00 hr 07 min 56 sec)
Simulation finished CPU 0 instructions: 100000001 cycles: 76241427 cumulative IPC: 1.312 (Simulation time: 00 hr 08 min 33 sec)
Simulation complete CPU 0 instructions: 100000001 cycles: 76241427 cumulative IPC: 1.312 (Simulation time: 00 hr 08 min 33 sec)

ChampSim completed all CPUs

=== Simulation ===
CPU 0 runs 445.gobmk-17B.champsimtrace.xz

Region of Interest Statistics

CPU 0 cumulative IPC: 1.312 instructions: 100000001 cycles: 76241427
CPU 0 Branch Prediction Accuracy: 86.27% MPKI: 24.34 Average ROB Occupancy at Mispredict: 17.19
Branch type MPKI
BRANCH_DIRECT_JUMP: 0.02599
BRANCH_INDIRECT: 0
BRANCH_CONDITIONAL: 24.25
BRANCH_DIRECT_CALL: 0.07071
BRANCH_INDIRECT_CALL: 0
BRANCH_RETURN: 1e-05

cpu0->cpu0_STLB TOTAL        ACCESS:       4135 HIT:       4072 MISS:         63 MSHR_MERGE:          0
cpu0->cpu0_STLB LOAD         ACCESS:       4135 HIT:       4072 MISS:         63 MSHR_MERGE:          0
cpu0->cpu0_STLB RFO          ACCESS:          0 HIT:          0 MISS:          0 MSHR_MERGE:          0
cpu0->cpu0_STLB PREFETCH     ACCESS:          0 HIT:          0 MISS:          0 MSHR_MERGE:          0
cpu0->cpu0_STLB WRITE        ACCESS:          0 HIT:          0 MISS:          0 MSHR_MERGE:          0
cpu0->cpu0_STLB TRANSLATION  ACCESS:          0 HIT:          0 MISS:          0 MSHR_MERGE:          0
cpu0->cpu0_STLB PREFETCH REQUESTED:          0 ISSUED:          0 USEFUL:          0 USELESS:          0
cpu0->cpu0_STLB AVERAGE MISS LATENCY: 485.3 cycles
cpu0->cpu0_L2C TOTAL        ACCESS:     446865 HIT:     427229 MISS:      19636 MSHR_MERGE:        515
cpu0->cpu0_L2C LOAD         ACCESS:     238732 HIT:     237371 MISS:       1361 MSHR_MERGE:          0
cpu0->cpu0_L2C RFO          ACCESS:      52370 HIT:      51916 MISS:        454 MSHR_MERGE:          0
cpu0->cpu0_L2C PREFETCH     ACCESS:      92737 HIT:      75333 MISS:      17404 MSHR_MERGE:        515
cpu0->cpu0_L2C WRITE        ACCESS:      62902 HIT:      62606 MISS:        296 MSHR_MERGE:          0
cpu0->cpu0_L2C TRANSLATION  ACCESS:        124 HIT:          3 MISS:        121 MSHR_MERGE:          0
cpu0->cpu0_L2C PREFETCH REQUESTED:      92737 ISSUED:      92737 USEFUL:          0 USELESS:          1
cpu0->cpu0_L2C AVERAGE MISS LATENCY: 55.79 cycles
cpu0->cpu0_L1I TOTAL        ACCESS:   13420904 HIT:   13133137 MISS:     287767 MSHR_MERGE:      71642
cpu0->cpu0_L1I LOAD         ACCESS:   13420904 HIT:   13133137 MISS:     287767 MSHR_MERGE:      71642
cpu0->cpu0_L1I RFO          ACCESS:          0 HIT:          0 MISS:          0 MSHR_MERGE:          0
cpu0->cpu0_L1I PREFETCH     ACCESS:          0 HIT:          0 MISS:          0 MSHR_MERGE:          0
cpu0->cpu0_L1I WRITE        ACCESS:          0 HIT:          0 MISS:          0 MSHR_MERGE:          0
cpu0->cpu0_L1I TRANSLATION  ACCESS:          0 HIT:          0 MISS:          0 MSHR_MERGE:          0
cpu0->cpu0_L1I PREFETCH REQUESTED:          0 ISSUED:          0 USEFUL:          0 USELESS:          0
cpu0->cpu0_L1I AVERAGE MISS LATENCY: 7.09 cycles
cpu0->cpu0_L1D TOTAL        ACCESS:   35322073 HIT:   35174522 MISS:     147551 MSHR_MERGE:      72449
cpu0->cpu0_L1D LOAD         ACCESS:   18922043 HIT:   18892167 MISS:      29876 MSHR_MERGE:       7269
cpu0->cpu0_L1D RFO          ACCESS:          0 HIT:          0 MISS:          0 MSHR_MERGE:          0
cpu0->cpu0_L1D PREFETCH     ACCESS:          0 HIT:          0 MISS:          0 MSHR_MERGE:          0
cpu0->cpu0_L1D WRITE        ACCESS:   16399904 HIT:   16282353 MISS:     117551 MSHR_MERGE:      65180
cpu0->cpu0_L1D TRANSLATION  ACCESS:        126 HIT:          2 MISS:        124 MSHR_MERGE:          0
cpu0->cpu0_L1D PREFETCH REQUESTED:          0 ISSUED:          0 USEFUL:          0 USELESS:          0
cpu0->cpu0_L1D AVERAGE MISS LATENCY: 9.623 cycles
cpu0->cpu0_ITLB TOTAL        ACCESS:   11124011 HIT:   11124011 MISS:          0 MSHR_MERGE:          0
cpu0->cpu0_ITLB LOAD         ACCESS:   11124011 HIT:   11124011 MISS:          0 MSHR_MERGE:          0
cpu0->cpu0_ITLB RFO          ACCESS:          0 HIT:          0 MISS:          0 MSHR_MERGE:          0
cpu0->cpu0_ITLB PREFETCH     ACCESS:          0 HIT:          0 MISS:          0 MSHR_MERGE:          0
cpu0->cpu0_ITLB WRITE        ACCESS:          0 HIT:          0 MISS:          0 MSHR_MERGE:          0
cpu0->cpu0_ITLB TRANSLATION  ACCESS:          0 HIT:          0 MISS:          0 MSHR_MERGE:          0
cpu0->cpu0_ITLB PREFETCH REQUESTED:          0 ISSUED:          0 USEFUL:          0 USELESS:          0
cpu0->cpu0_ITLB AVERAGE MISS LATENCY: - cycles
cpu0->cpu0_DTLB TOTAL        ACCESS:   33848065 HIT:   33841773 MISS:       6292 MSHR_MERGE:       2157
cpu0->cpu0_DTLB LOAD         ACCESS:   33848065 HIT:   33841773 MISS:       6292 MSHR_MERGE:       2157
cpu0->cpu0_DTLB RFO          ACCESS:          0 HIT:          0 MISS:          0 MSHR_MERGE:          0
cpu0->cpu0_DTLB PREFETCH     ACCESS:          0 HIT:          0 MISS:          0 MSHR_MERGE:          0
cpu0->cpu0_DTLB WRITE        ACCESS:          0 HIT:          0 MISS:          0 MSHR_MERGE:          0
cpu0->cpu0_DTLB TRANSLATION  ACCESS:          0 HIT:          0 MISS:          0 MSHR_MERGE:          0
cpu0->cpu0_DTLB PREFETCH REQUESTED:          0 ISSUED:          0 USEFUL:          0 USELESS:          0
cpu0->cpu0_DTLB AVERAGE MISS LATENCY: 12.41 cycles
cpu0->LLC TOTAL        ACCESS:      19404 HIT:      18135 MISS:       1269 MSHR_MERGE:          2
cpu0->LLC LOAD         ACCESS:       1361 HIT:        956 MISS:        405 MSHR_MERGE:          0
cpu0->LLC RFO          ACCESS:        454 HIT:        333 MISS:        121 MSHR_MERGE:          0
cpu0->LLC PREFETCH     ACCESS:      16889 HIT:      16236 MISS:        653 MSHR_MERGE:          2
cpu0->LLC WRITE        ACCESS:        579 HIT:        578 MISS:          1 MSHR_MERGE:          0
cpu0->LLC TRANSLATION  ACCESS:        121 HIT:         32 MISS:         89 MSHR_MERGE:          0
cpu0->LLC PREFETCH REQUESTED:          0 ISSUED:          0 USEFUL:          0 USELESS:          0
cpu0->LLC AVERAGE MISS LATENCY: 152.1 cycles

DRAM Statistics

Channel 0 RQ ROW_BUFFER_HIT:          4
  ROW_BUFFER_MISS:       1262
  AVG DBUS CONGESTED CYCLE: 8.626
Channel 0 WQ ROW_BUFFER_HIT:          6
  ROW_BUFFER_MISS:         12
  FULL:          0
Channel 0 REFRESHES ISSUED:       6353
