[VMEM] WARNING: physical memory size is smaller than virtual memory size.

*** ChampSim Multicore Out-of-Order Simulator ***
Warmup Instructions: 50000000
Simulation Instructions: 100000000
Number of CPUs: 1
Page size: 4096

Off-chip DRAM Size: 16 GiB Channels: 1 Width: 64-bit Data Rate: 3205 MT/s
Heartbeat CPU 0 instructions: 10000001 cycles: 2536794 heartbeat IPC: 3.942 cumulative IPC: 3.942 (Simulation time: 00 hr 00 min 23 sec)
Heartbeat CPU 0 instructions: 20000003 cycles: 5064859 heartbeat IPC: 3.956 cumulative IPC: 3.949 (Simulation time: 00 hr 00 min 48 sec)
Heartbeat CPU 0 instructions: 30000005 cycles: 7582214 heartbeat IPC: 3.972 cumulative IPC: 3.957 (Simulation time: 00 hr 01 min 11 sec)
Heartbeat CPU 0 instructions: 40000007 cycles: 10097422 heartbeat IPC: 3.976 cumulative IPC: 3.961 (Simulation time: 00 hr 01 min 33 sec)
Warmup finished CPU 0 instructions: 50000003 cycles: 12613339 cumulative IPC: 3.964 (Simulation time: 00 hr 01 min 56 sec)
Warmup complete CPU 0 instructions: 50000003 cycles: 12613339 cumulative IPC: 3.964 (Simulation time: 00 hr 01 min 56 sec)
Heartbeat CPU 0 instructions: 50000007 cycles: 12613340 heartbeat IPC: 3.975 cumulative IPC: 4 (Simulation time: 00 hr 01 min 56 sec)
Heartbeat CPU 0 instructions: 60000008 cycles: 16476380 heartbeat IPC: 2.589 cumulative IPC: 2.589 (Simulation time: 00 hr 02 min 21 sec)
Heartbeat CPU 0 instructions: 70000009 cycles: 20342605 heartbeat IPC: 2.587 cumulative IPC: 2.588 (Simulation time: 00 hr 02 min 46 sec)
Heartbeat CPU 0 instructions: 80000010 cycles: 24205628 heartbeat IPC: 2.589 cumulative IPC: 2.588 (Simulation time: 00 hr 03 min 11 sec)
Heartbeat CPU 0 instructions: 90000011 cycles: 28084903 heartbeat IPC: 2.578 cumulative IPC: 2.585 (Simulation time: 00 hr 03 min 36 sec)
Heartbeat CPU 0 instructions: 100000015 cycles: 31818494 heartbeat IPC: 2.678 cumulative IPC: 2.603 (Simulation time: 00 hr 04 min 00 sec)
Heartbeat CPU 0 instructions: 110000016 cycles: 35429856 heartbeat IPC: 2.769 cumulative IPC: 2.63 (Simulation time: 00 hr 04 min 24 sec)
Heartbeat CPU 0 instructions: 120000017 cycles: 39088569 heartbeat IPC: 2.733 cumulative IPC: 2.644 (Simulation time: 00 hr 04 min 48 sec)
Heartbeat CPU 0 instructions: 130000018 cycles: 42798921 heartbeat IPC: 2.695 cumulative IPC: 2.65 (Simulation time: 00 hr 05 min 13 sec)
Heartbeat CPU 0 instructions: 140000020 cycles: 52612094 heartbeat IPC: 1.019 cumulative IPC: 2.25 (Simulation time: 00 hr 05 min 53 sec)
Simulation finished CPU 0 instructions: 100000003 cycles: 46104545 cumulative IPC: 2.169 (Simulation time: 00 hr 06 min 25 sec)
Simulation complete CPU 0 instructions: 100000003 cycles: 46104545 cumulative IPC: 2.169 (Simulation time: 00 hr 06 min 25 sec)

ChampSim completed all CPUs

=== Simulation ===
CPU 0 runs 625.x264_s-18B.champsimtrace.xz

Region of Interest Statistics

CPU 0 cumulative IPC: 2.169 instructions: 100000003 cycles: 46104545
CPU 0 Branch Prediction Accuracy: 87.37% MPKI: 6.356 Average ROB Occupancy at Mispredict: 62.29
Branch type MPKI
BRANCH_DIRECT_JUMP: 0.00129
BRANCH_INDIRECT: 0.0005
BRANCH_CONDITIONAL: 6.278
BRANCH_DIRECT_CALL: 0.00205
BRANCH_INDIRECT_CALL: 0.01099
BRANCH_RETURN: 0.06297

cpu0->cpu0_STLB TOTAL        ACCESS:      32366 HIT:      31131 MISS:       1235 MSHR_MERGE:          0
cpu0->cpu0_STLB LOAD         ACCESS:      32366 HIT:      31131 MISS:       1235 MSHR_MERGE:          0
cpu0->cpu0_STLB RFO          ACCESS:          0 HIT:          0 MISS:          0 MSHR_MERGE:          0
cpu0->cpu0_STLB PREFETCH     ACCESS:          0 HIT:          0 MISS:          0 MSHR_MERGE:          0
cpu0->cpu0_STLB WRITE        ACCESS:          0 HIT:          0 MISS:          0 MSHR_MERGE:          0
cpu0->cpu0_STLB TRANSLATION  ACCESS:          0 HIT:          0 MISS:          0 MSHR_MERGE:          0
cpu0->cpu0_STLB PREFETCH REQUESTED:          0 ISSUED:          0 USEFUL:          0 USELESS:          0
cpu0->cpu0_STLB AVERAGE MISS LATENCY: 789.7 cycles
cpu0->cpu0_L2C TOTAL        ACCESS:     133429 HIT:      39837 MISS:      93592 MSHR_MERGE:          0
cpu0->cpu0_L2C LOAD         ACCESS:     106599 HIT:      32773 MISS:      73826 MSHR_MERGE:          0
cpu0->cpu0_L2C RFO          ACCESS:       9575 HIT:       1122 MISS:       8453 MSHR_MERGE:          0
cpu0->cpu0_L2C PREFETCH     ACCESS:          0 HIT:          0 MISS:          0 MSHR_MERGE:          0
cpu0->cpu0_L2C WRITE        ACCESS:      15070 HIT:       5935 MISS:       9135 MSHR_MERGE:          0
cpu0->cpu0_L2C TRANSLATION  ACCESS:       2185 HIT:          7 MISS:       2178 MSHR_MERGE:          0
cpu0->cpu0_L2C PREFETCH REQUESTED:          0 ISSUED:          0 USEFUL:          0 USELESS:          0
cpu0->cpu0_L2C AVERAGE MISS LATENCY: 120 cycles
cpu0->cpu0_L1I TOTAL        ACCESS:    8379493 HIT:    8312100 MISS:      67393 MSHR_MERGE:      24580
cpu0->cpu0_L1I LOAD         ACCESS:    8379493 HIT:    8312100 MISS:      67393 MSHR_MERGE:      24580
cpu0->cpu0_L1I RFO          ACCESS:          0 HIT:          0 MISS:          0 MSHR_MERGE:          0
cpu0->cpu0_L1I PREFETCH     ACCESS:          0 HIT:          0 MISS:          0 MSHR_MERGE:          0
cpu0->cpu0_L1I WRITE        ACCESS:          0 HIT:          0 MISS:          0 MSHR_MERGE:          0
cpu0->cpu0_L1I TRANSLATION  ACCESS:          0 HIT:          0 MISS:          0 MSHR_MERGE:          0
cpu0->cpu0_L1I PREFETCH REQUESTED:          0 ISSUED:          0 USEFUL:          0 USELESS:          0
cpu0->cpu0_L1I AVERAGE MISS LATENCY: 20.61 cycles
cpu0->cpu0_L1D TOTAL        ACCESS:   21235201 HIT:   21068680 MISS:     166521 MSHR_MERGE:      90973
cpu0->cpu0_L1D LOAD         ACCESS:   14667671 HIT:   14551320 MISS:     116351 MSHR_MERGE:      52565
cpu0->cpu0_L1D RFO          ACCESS:          0 HIT:          0 MISS:          0 MSHR_MERGE:          0
cpu0->cpu0_L1D PREFETCH     ACCESS:          0 HIT:          0 MISS:          0 MSHR_MERGE:          0
cpu0->cpu0_L1D WRITE        ACCESS:    6565035 HIT:    6517127 MISS:      47908 MSHR_MERGE:      38331
cpu0->cpu0_L1D TRANSLATION  ACCESS:       2495 HIT:        233 MISS:       2262 MSHR_MERGE:         77
cpu0->cpu0_L1D PREFETCH REQUESTED:          0 ISSUED:          0 USEFUL:          0 USELESS:          0
cpu0->cpu0_L1D AVERAGE MISS LATENCY: 149.7 cycles
cpu0->cpu0_ITLB TOTAL        ACCESS:    7517731 HIT:    7516685 MISS:       1046 MSHR_MERGE:        694
cpu0->cpu0_ITLB LOAD         ACCESS:    7517731 HIT:    7516685 MISS:       1046 MSHR_MERGE:        694
cpu0->cpu0_ITLB RFO          ACCESS:          0 HIT:          0 MISS:          0 MSHR_MERGE:          0
cpu0->cpu0_ITLB PREFETCH     ACCESS:          0 HIT:          0 MISS:          0 MSHR_MERGE:          0
cpu0->cpu0_ITLB WRITE        ACCESS:          0 HIT:          0 MISS:          0 MSHR_MERGE:          0
cpu0->cpu0_ITLB TRANSLATION  ACCESS:          0 HIT:          0 MISS:          0 MSHR_MERGE:          0
cpu0->cpu0_ITLB PREFETCH REQUESTED:          0 ISSUED:          0 USEFUL:          0 USELESS:          0
cpu0->cpu0_ITLB AVERAGE MISS LATENCY: 151.7 cycles
cpu0->cpu0_DTLB TOTAL        ACCESS:   20194164 HIT:   20127655 MISS:      66509 MSHR_MERGE:      34495
cpu0->cpu0_DTLB LOAD         ACCESS:   20194164 HIT:   20127655 MISS:      66509 MSHR_MERGE:      34495
cpu0->cpu0_DTLB RFO          ACCESS:          0 HIT:          0 MISS:          0 MSHR_MERGE:          0
cpu0->cpu0_DTLB PREFETCH     ACCESS:          0 HIT:          0 MISS:          0 MSHR_MERGE:          0
cpu0->cpu0_DTLB WRITE        ACCESS:          0 HIT:          0 MISS:          0 MSHR_MERGE:          0
cpu0->cpu0_DTLB TRANSLATION  ACCESS:          0 HIT:          0 MISS:          0 MSHR_MERGE:          0
cpu0->cpu0_DTLB PREFETCH REQUESTED:          0 ISSUED:          0 USEFUL:          0 USELESS:          0
cpu0->cpu0_DTLB AVERAGE MISS LATENCY: 33.89 cycles
cpu0->LLC TOTAL        ACCESS:      93092 HIT:      35743 MISS:      57349 MSHR_MERGE:          0
cpu0->LLC LOAD         ACCESS:      73826 HIT:      26965 MISS:      46861 MSHR_MERGE:          0
cpu0->LLC RFO          ACCESS:       8452 HIT:        342 MISS:       8110 MSHR_MERGE:          0
cpu0->LLC PREFETCH     ACCESS:          0 HIT:          0 MISS:          0 MSHR_MERGE:          0
cpu0->LLC WRITE        ACCESS:       8636 HIT:       8403 MISS:        233 MSHR_MERGE:          0
cpu0->LLC TRANSLATION  ACCESS:       2178 HIT:         33 MISS:       2145 MSHR_MERGE:          0
cpu0->LLC PREFETCH REQUESTED:          0 ISSUED:          0 USEFUL:          0 USELESS:          0
cpu0->LLC AVERAGE MISS LATENCY: 172.2 cycles

DRAM Statistics

Channel 0 RQ ROW_BUFFER_HIT:       1741
  ROW_BUFFER_MISS:      55375
  AVG DBUS CONGESTED CYCLE: 9.656
Channel 0 WQ ROW_BUFFER_HIT:        343
  ROW_BUFFER_MISS:       1011
  FULL:          0
Channel 0 REFRESHES ISSUED:       3842
