[VMEM] WARNING: physical memory size is smaller than virtual memory size.

*** ChampSim Multicore Out-of-Order Simulator ***
Warmup Instructions: 50000000
Simulation Instructions: 100000000
Number of CPUs: 1
Page size: 4096

Off-chip DRAM Size: 16 GiB Channels: 1 Width: 64-bit Data Rate: 3205 MT/s
Heartbeat CPU 0 instructions: 10000000 cycles: 2940523 heartbeat IPC: 3.401 cumulative IPC: 3.401 (Simulation time: 00 hr 00 min 29 sec)
Heartbeat CPU 0 instructions: 20000002 cycles: 5644279 heartbeat IPC: 3.699 cumulative IPC: 3.543 (Simulation time: 00 hr 00 min 56 sec)
Heartbeat CPU 0 instructions: 30000005 cycles: 8260242 heartbeat IPC: 3.823 cumulative IPC: 3.632 (Simulation time: 00 hr 01 min 24 sec)
Heartbeat CPU 0 instructions: 40000005 cycles: 10847107 heartbeat IPC: 3.866 cumulative IPC: 3.688 (Simulation time: 00 hr 01 min 52 sec)
Warmup finished CPU 0 instructions: 50000001 cycles: 13430349 cumulative IPC: 3.723 (Simulation time: 00 hr 02 min 19 sec)
Warmup complete CPU 0 instructions: 50000001 cycles: 13430349 cumulative IPC: 3.723 (Simulation time: 00 hr 02 min 19 sec)
Heartbeat CPU 0 instructions: 50000006 cycles: 13430350 heartbeat IPC: 3.871 cumulative IPC: 5 (Simulation time: 00 hr 02 min 19 sec)
Heartbeat CPU 0 instructions: 60000007 cycles: 20956848 heartbeat IPC: 1.329 cumulative IPC: 1.329 (Simulation time: 00 hr 02 min 57 sec)
Heartbeat CPU 0 instructions: 70000010 cycles: 28690813 heartbeat IPC: 1.293 cumulative IPC: 1.311 (Simulation time: 00 hr 03 min 35 sec)
Heartbeat CPU 0 instructions: 80000010 cycles: 36297714 heartbeat IPC: 1.315 cumulative IPC: 1.312 (Simulation time: 00 hr 04 min 13 sec)
Heartbeat CPU 0 instructions: 90000013 cycles: 43982318 heartbeat IPC: 1.301 cumulative IPC: 1.309 (Simulation time: 00 hr 04 min 50 sec)
Heartbeat CPU 0 instructions: 100000015 cycles: 51584710 heartbeat IPC: 1.315 cumulative IPC: 1.31 (Simulation time: 00 hr 05 min 28 sec)
Heartbeat CPU 0 instructions: 110000015 cycles: 59285101 heartbeat IPC: 1.299 cumulative IPC: 1.308 (Simulation time: 00 hr 06 min 08 sec)
Heartbeat CPU 0 instructions: 120000016 cycles: 66901566 heartbeat IPC: 1.313 cumulative IPC: 1.309 (Simulation time: 00 hr 06 min 47 sec)
Heartbeat CPU 0 instructions: 130000020 cycles: 74563692 heartbeat IPC: 1.305 cumulative IPC: 1.309 (Simulation time: 00 hr 07 min 27 sec)
Heartbeat CPU 0 instructions: 140000022 cycles: 82165195 heartbeat IPC: 1.316 cumulative IPC: 1.309 (Simulation time: 00 hr 08 min 05 sec)
Simulation finished CPU 0 instructions: 100000001 cycles: 76391043 cumulative IPC: 1.309 (Simulation time: 00 hr 08 min 42 sec)
Simulation complete CPU 0 instructions: 100000001 cycles: 76391043 cumulative IPC: 1.309 (Simulation time: 00 hr 08 min 42 sec)

ChampSim completed all CPUs

=== Simulation ===
CPU 0 runs 445.gobmk-17B.champsimtrace.xz

Region of Interest Statistics

CPU 0 cumulative IPC: 1.309 instructions: 100000001 cycles: 76391043
CPU 0 Branch Prediction Accuracy: 86.27% MPKI: 24.34 Average ROB Occupancy at Mispredict: 17.18
Branch type MPKI
BRANCH_DIRECT_JUMP: 0.02599
BRANCH_INDIRECT: 0
BRANCH_CONDITIONAL: 24.25
BRANCH_DIRECT_CALL: 0.07071
BRANCH_INDIRECT_CALL: 0
BRANCH_RETURN: 1e-05

cpu0->cpu0_STLB TOTAL        ACCESS:       4135 HIT:       4072 MISS:         63 MSHR_MERGE:          0
cpu0->cpu0_STLB LOAD         ACCESS:       4135 HIT:       4072 MISS:         63 MSHR_MERGE:          0
cpu0->cpu0_STLB RFO          ACCESS:          0 HIT:          0 MISS:          0 MSHR_MERGE:          0
cpu0->cpu0_STLB PREFETCH     ACCESS:          0 HIT:          0 MISS:          0 MSHR_MERGE:          0
cpu0->cpu0_STLB WRITE        ACCESS:          0 HIT:          0 MISS:          0 MSHR_MERGE:          0
cpu0->cpu0_STLB TRANSLATION  ACCESS:          0 HIT:          0 MISS:          0 MSHR_MERGE:          0
cpu0->cpu0_STLB PREFETCH REQUESTED:          0 ISSUED:          0 USEFUL:          0 USELESS:          0
cpu0->cpu0_STLB AVERAGE MISS LATENCY: 491.1 cycles
cpu0->cpu0_L2C TOTAL        ACCESS:     354131 HIT:     333423 MISS:      20708 MSHR_MERGE:          0
cpu0->cpu0_L2C LOAD         ACCESS:     238734 HIT:     225389 MISS:      13345 MSHR_MERGE:          0
cpu0->cpu0_L2C RFO          ACCESS:      52371 HIT:      49586 MISS:       2785 MSHR_MERGE:          0
cpu0->cpu0_L2C PREFETCH     ACCESS:          0 HIT:          0 MISS:          0 MSHR_MERGE:          0
cpu0->cpu0_L2C WRITE        ACCESS:      62902 HIT:      58446 MISS:       4456 MSHR_MERGE:          0
cpu0->cpu0_L2C TRANSLATION  ACCESS:        124 HIT:          2 MISS:        122 MSHR_MERGE:          0
cpu0->cpu0_L2C PREFETCH REQUESTED:          0 ISSUED:          0 USEFUL:          0 USELESS:          0
cpu0->cpu0_L2C AVERAGE MISS LATENCY: 18.96 cycles
cpu0->cpu0_L1I TOTAL        ACCESS:   13425413 HIT:   13136994 MISS:     288419 MSHR_MERGE:      72291
cpu0->cpu0_L1I LOAD         ACCESS:   13425413 HIT:   13136994 MISS:     288419 MSHR_MERGE:      72291
cpu0->cpu0_L1I RFO          ACCESS:          0 HIT:          0 MISS:          0 MSHR_MERGE:          0
cpu0->cpu0_L1I PREFETCH     ACCESS:          0 HIT:          0 MISS:          0 MSHR_MERGE:          0
cpu0->cpu0_L1I WRITE        ACCESS:          0 HIT:          0 MISS:          0 MSHR_MERGE:          0
cpu0->cpu0_L1I TRANSLATION  ACCESS:          0 HIT:          0 MISS:          0 MSHR_MERGE:          0
cpu0->cpu0_L1I PREFETCH REQUESTED:          0 ISSUED:          0 USEFUL:          0 USELESS:          0
cpu0->cpu0_L1I AVERAGE MISS LATENCY: 7.764 cycles
cpu0->cpu0_L1D TOTAL        ACCESS:   35326065 HIT:   35174786 MISS:     151279 MSHR_MERGE:      76176
cpu0->cpu0_L1D LOAD         ACCESS:   18925405 HIT:   18895315 MISS:      30090 MSHR_MERGE:       7484
cpu0->cpu0_L1D RFO          ACCESS:          0 HIT:          0 MISS:          0 MSHR_MERGE:          0
cpu0->cpu0_L1D PREFETCH     ACCESS:          0 HIT:          0 MISS:          0 MSHR_MERGE:          0
cpu0->cpu0_L1D WRITE        ACCESS:   16400534 HIT:   16279469 MISS:     121065 MSHR_MERGE:      68692
cpu0->cpu0_L1D TRANSLATION  ACCESS:        126 HIT:          2 MISS:        124 MSHR_MERGE:          0
cpu0->cpu0_L1D PREFETCH REQUESTED:          0 ISSUED:          0 USEFUL:          0 USELESS:          0
cpu0->cpu0_L1D AVERAGE MISS LATENCY: 11.21 cycles
cpu0->cpu0_ITLB TOTAL        ACCESS:   11131970 HIT:   11131970 MISS:          0 MSHR_MERGE:          0
cpu0->cpu0_ITLB LOAD         ACCESS:   11131970 HIT:   11131970 MISS:          0 MSHR_MERGE:          0
cpu0->cpu0_ITLB RFO          ACCESS:          0 HIT:          0 MISS:          0 MSHR_MERGE:          0
cpu0->cpu0_ITLB PREFETCH     ACCESS:          0 HIT:          0 MISS:          0 MSHR_MERGE:          0
cpu0->cpu0_ITLB WRITE        ACCESS:          0 HIT:          0 MISS:          0 MSHR_MERGE:          0
cpu0->cpu0_ITLB TRANSLATION  ACCESS:          0 HIT:          0 MISS:          0 MSHR_MERGE:          0
cpu0->cpu0_ITLB PREFETCH REQUESTED:          0 ISSUED:          0 USEFUL:          0 USELESS:          0
cpu0->cpu0_ITLB AVERAGE MISS LATENCY: - cycles
cpu0->cpu0_DTLB TOTAL        ACCESS:   33853167 HIT:   33846879 MISS:       6288 MSHR_MERGE:       2153
cpu0->cpu0_DTLB LOAD         ACCESS:   33853167 HIT:   33846879 MISS:       6288 MSHR_MERGE:       2153
cpu0->cpu0_DTLB RFO          ACCESS:          0 HIT:          0 MISS:          0 MSHR_MERGE:          0
cpu0->cpu0_DTLB PREFETCH     ACCESS:          0 HIT:          0 MISS:          0 MSHR_MERGE:          0
cpu0->cpu0_DTLB WRITE        ACCESS:          0 HIT:          0 MISS:          0 MSHR_MERGE:          0
cpu0->cpu0_DTLB TRANSLATION  ACCESS:          0 HIT:          0 MISS:          0 MSHR_MERGE:          0
cpu0->cpu0_DTLB PREFETCH REQUESTED:          0 ISSUED:          0 USEFUL:          0 USELESS:          0
cpu0->cpu0_DTLB AVERAGE MISS LATENCY: 12.5 cycles
cpu0->LLC TOTAL        ACCESS:      21599 HIT:      20748 MISS:        851 MSHR_MERGE:          0
cpu0->LLC LOAD         ACCESS:      13345 HIT:      12712 MISS:        633 MSHR_MERGE:          0
cpu0->LLC RFO          ACCESS:       2785 HIT:       2657 MISS:        128 MSHR_MERGE:          0
cpu0->LLC PREFETCH     ACCESS:          0 HIT:          0 MISS:          0 MSHR_MERGE:          0
cpu0->LLC WRITE        ACCESS:       5347 HIT:       5346 MISS:          1 MSHR_MERGE:          0
cpu0->LLC TRANSLATION  ACCESS:        122 HIT:         33 MISS:         89 MSHR_MERGE:          0
cpu0->LLC PREFETCH REQUESTED:          0 ISSUED:          0 USEFUL:          0 USELESS:          0
cpu0->LLC AVERAGE MISS LATENCY: 152.8 cycles

DRAM Statistics

Channel 0 RQ ROW_BUFFER_HIT:          6
  ROW_BUFFER_MISS:        844
  AVG DBUS CONGESTED CYCLE: 2.88
Channel 0 WQ ROW_BUFFER_HIT:          0
  ROW_BUFFER_MISS:          0
  FULL:          0
Channel 0 REFRESHES ISSUED:       6366
