[VMEM] WARNING: physical memory size is smaller than virtual memory size.

*** ChampSim Multicore Out-of-Order Simulator ***
Warmup Instructions: 50000000
Simulation Instructions: 100000000
Number of CPUs: 1
Page size: 4096

Initialize SIGNATURE TABLE
ST_SET: 1
ST_WAY: 256
ST_TAG_BIT: 16

Initialize PATTERN TABLE
PT_SET: 512
PT_WAY: 4
SIG_DELTA_BIT: 7
C_SIG_BIT: 4
C_DELTA_BIT: 4

Initialize PREFETCH FILTER
FILTER_SET: 1024
Off-chip DRAM Size: 16 GiB Channels: 1 Width: 64-bit Data Rate: 3205 MT/s
Heartbeat CPU 0 instructions: 10000000 cycles: 2940673 heartbeat IPC: 3.401 cumulative IPC: 3.401 (Simulation time: 00 hr 00 min 28 sec)
Heartbeat CPU 0 instructions: 20000002 cycles: 5644329 heartbeat IPC: 3.699 cumulative IPC: 3.543 (Simulation time: 00 hr 00 min 55 sec)
Heartbeat CPU 0 instructions: 30000005 cycles: 8260222 heartbeat IPC: 3.823 cumulative IPC: 3.632 (Simulation time: 00 hr 01 min 23 sec)
Heartbeat CPU 0 instructions: 40000005 cycles: 10847087 heartbeat IPC: 3.866 cumulative IPC: 3.688 (Simulation time: 00 hr 01 min 50 sec)
Warmup finished CPU 0 instructions: 50000001 cycles: 13430329 cumulative IPC: 3.723 (Simulation time: 00 hr 02 min 16 sec)
Warmup complete CPU 0 instructions: 50000001 cycles: 13430329 cumulative IPC: 3.723 (Simulation time: 00 hr 02 min 16 sec)
Heartbeat CPU 0 instructions: 50000006 cycles: 13430330 heartbeat IPC: 3.871 cumulative IPC: 5 (Simulation time: 00 hr 02 min 16 sec)
Heartbeat CPU 0 instructions: 60000007 cycles: 20943414 heartbeat IPC: 1.331 cumulative IPC: 1.331 (Simulation time: 00 hr 02 min 57 sec)
Heartbeat CPU 0 instructions: 70000010 cycles: 28659483 heartbeat IPC: 1.296 cumulative IPC: 1.313 (Simulation time: 00 hr 03 min 36 sec)
Heartbeat CPU 0 instructions: 80000010 cycles: 36251834 heartbeat IPC: 1.317 cumulative IPC: 1.315 (Simulation time: 00 hr 04 min 14 sec)
Heartbeat CPU 0 instructions: 90000013 cycles: 43917936 heartbeat IPC: 1.304 cumulative IPC: 1.312 (Simulation time: 00 hr 04 min 51 sec)
Heartbeat CPU 0 instructions: 100000015 cycles: 51507465 heartbeat IPC: 1.318 cumulative IPC: 1.313 (Simulation time: 00 hr 05 min 28 sec)
Heartbeat CPU 0 instructions: 110000015 cycles: 59190315 heartbeat IPC: 1.302 cumulative IPC: 1.311 (Simulation time: 00 hr 06 min 06 sec)
Heartbeat CPU 0 instructions: 120000016 cycles: 66794149 heartbeat IPC: 1.315 cumulative IPC: 1.312 (Simulation time: 00 hr 06 min 43 sec)
Heartbeat CPU 0 instructions: 130000020 cycles: 74440362 heartbeat IPC: 1.308 cumulative IPC: 1.311 (Simulation time: 00 hr 07 min 21 sec)
Heartbeat CPU 0 instructions: 140000022 cycles: 82026436 heartbeat IPC: 1.318 cumulative IPC: 1.312 (Simulation time: 00 hr 07 min 59 sec)
Simulation finished CPU 0 instructions: 100000001 cycles: 76236156 cumulative IPC: 1.312 (Simulation time: 00 hr 08 min 37 sec)
Simulation complete CPU 0 instructions: 100000001 cycles: 76236156 cumulative IPC: 1.312 (Simulation time: 00 hr 08 min 37 sec)

ChampSim completed all CPUs

=== Simulation ===
CPU 0 runs 445.gobmk-17B.champsimtrace.xz

Region of Interest Statistics

CPU 0 cumulative IPC: 1.312 instructions: 100000001 cycles: 76236156
CPU 0 Branch Prediction Accuracy: 86.27% MPKI: 24.34 Average ROB Occupancy at Mispredict: 17.19
Branch type MPKI
BRANCH_DIRECT_JUMP: 0.02599
BRANCH_INDIRECT: 0
BRANCH_CONDITIONAL: 24.25
BRANCH_DIRECT_CALL: 0.07071
BRANCH_INDIRECT_CALL: 0
BRANCH_RETURN: 1e-05

cpu0->cpu0_STLB TOTAL        ACCESS:       4135 HIT:       4072 MISS:         63 MSHR_MERGE:          0
cpu0->cpu0_STLB LOAD         ACCESS:       4135 HIT:       4072 MISS:         63 MSHR_MERGE:          0
cpu0->cpu0_STLB RFO          ACCESS:          0 HIT:          0 MISS:          0 MSHR_MERGE:          0
cpu0->cpu0_STLB PREFETCH     ACCESS:          0 HIT:          0 MISS:          0 MSHR_MERGE:          0
cpu0->cpu0_STLB WRITE        ACCESS:          0 HIT:          0 MISS:          0 MSHR_MERGE:          0
cpu0->cpu0_STLB TRANSLATION  ACCESS:          0 HIT:          0 MISS:          0 MSHR_MERGE:          0
cpu0->cpu0_STLB PREFETCH REQUESTED:          0 ISSUED:          0 USEFUL:          0 USELESS:          0
cpu0->cpu0_STLB AVERAGE MISS LATENCY: 479.1 cycles
cpu0->cpu0_L2C TOTAL        ACCESS:     445392 HIT:     430305 MISS:      15087 MSHR_MERGE:        232
cpu0->cpu0_L2C LOAD         ACCESS:     238732 HIT:     238015 MISS:        717 MSHR_MERGE:          0
cpu0->cpu0_L2C RFO          ACCESS:      52370 HIT:      52129 MISS:        241 MSHR_MERGE:          0
cpu0->cpu0_L2C PREFETCH     ACCESS:      91263 HIT:      77291 MISS:      13972 MSHR_MERGE:        232
cpu0->cpu0_L2C WRITE        ACCESS:      62903 HIT:      62862 MISS:         41 MSHR_MERGE:          0
cpu0->cpu0_L2C TRANSLATION  ACCESS:        124 HIT:          8 MISS:        116 MSHR_MERGE:          0
cpu0->cpu0_L2C PREFETCH REQUESTED:      91263 ISSUED:      91263 USEFUL:          0 USELESS:          1
cpu0->cpu0_L2C AVERAGE MISS LATENCY: 99.33 cycles
cpu0->cpu0_L1I TOTAL        ACCESS:   13420896 HIT:   13133122 MISS:     287774 MSHR_MERGE:      71649
cpu0->cpu0_L1I LOAD         ACCESS:   13420896 HIT:   13133122 MISS:     287774 MSHR_MERGE:      71649
cpu0->cpu0_L1I RFO          ACCESS:          0 HIT:          0 MISS:          0 MSHR_MERGE:          0
cpu0->cpu0_L1I PREFETCH     ACCESS:          0 HIT:          0 MISS:          0 MSHR_MERGE:          0
cpu0->cpu0_L1I WRITE        ACCESS:          0 HIT:          0 MISS:          0 MSHR_MERGE:          0
cpu0->cpu0_L1I TRANSLATION  ACCESS:          0 HIT:          0 MISS:          0 MSHR_MERGE:          0
cpu0->cpu0_L1I PREFETCH REQUESTED:          0 ISSUED:          0 USEFUL:          0 USELESS:          0
cpu0->cpu0_L1I AVERAGE MISS LATENCY: 7.073 cycles
cpu0->cpu0_L1D TOTAL        ACCESS:   35322110 HIT:   35174872 MISS:     147238 MSHR_MERGE:      72136
cpu0->cpu0_L1D LOAD         ACCESS:   18922068 HIT:   18892256 MISS:      29812 MSHR_MERGE:       7205
cpu0->cpu0_L1D RFO          ACCESS:          0 HIT:          0 MISS:          0 MSHR_MERGE:          0
cpu0->cpu0_L1D PREFETCH     ACCESS:          0 HIT:          0 MISS:          0 MSHR_MERGE:          0
cpu0->cpu0_L1D WRITE        ACCESS:   16399916 HIT:   16282614 MISS:     117302 MSHR_MERGE:      64931
cpu0->cpu0_L1D TRANSLATION  ACCESS:        126 HIT:          2 MISS:        124 MSHR_MERGE:          0
cpu0->cpu0_L1D PREFETCH REQUESTED:          0 ISSUED:          0 USEFUL:          0 USELESS:          0
cpu0->cpu0_L1D AVERAGE MISS LATENCY: 9.493 cycles
cpu0->cpu0_ITLB TOTAL        ACCESS:   11124019 HIT:   11124019 MISS:          0 MSHR_MERGE:          0
cpu0->cpu0_ITLB LOAD         ACCESS:   11124019 HIT:   11124019 MISS:          0 MSHR_MERGE:          0
cpu0->cpu0_ITLB RFO          ACCESS:          0 HIT:          0 MISS:          0 MSHR_MERGE:          0
cpu0->cpu0_ITLB PREFETCH     ACCESS:          0 HIT:          0 MISS:          0 MSHR_MERGE:          0
cpu0->cpu0_ITLB WRITE        ACCESS:          0 HIT:          0 MISS:          0 MSHR_MERGE:          0
cpu0->cpu0_ITLB TRANSLATION  ACCESS:          0 HIT:          0 MISS:          0 MSHR_MERGE:          0
cpu0->cpu0_ITLB PREFETCH REQUESTED:          0 ISSUED:          0 USEFUL:          0 USELESS:          0
cpu0->cpu0_ITLB AVERAGE MISS LATENCY: - cycles
cpu0->cpu0_DTLB TOTAL        ACCESS:   33848026 HIT:   33841728 MISS:       6298 MSHR_MERGE:       2163
cpu0->cpu0_DTLB LOAD         ACCESS:   33848026 HIT:   33841728 MISS:       6298 MSHR_MERGE:       2163
cpu0->cpu0_DTLB RFO          ACCESS:          0 HIT:          0 MISS:          0 MSHR_MERGE:          0
cpu0->cpu0_DTLB PREFETCH     ACCESS:          0 HIT:          0 MISS:          0 MSHR_MERGE:          0
cpu0->cpu0_DTLB WRITE        ACCESS:          0 HIT:          0 MISS:          0 MSHR_MERGE:          0
cpu0->cpu0_DTLB TRANSLATION  ACCESS:          0 HIT:          0 MISS:          0 MSHR_MERGE:          0
cpu0->cpu0_DTLB PREFETCH REQUESTED:          0 ISSUED:          0 USEFUL:          0 USELESS:          0
cpu0->cpu0_DTLB AVERAGE MISS LATENCY: 12.32 cycles
cpu0->LLC TOTAL        ACCESS:      15153 HIT:      13877 MISS:       1276 MSHR_MERGE:          2
cpu0->LLC LOAD         ACCESS:        717 HIT:        309 MISS:        408 MSHR_MERGE:          1
cpu0->LLC RFO          ACCESS:        241 HIT:        119 MISS:        122 MSHR_MERGE:          0
cpu0->LLC PREFETCH     ACCESS:      13740 HIT:      13086 MISS:        654 MSHR_MERGE:          1
cpu0->LLC WRITE        ACCESS:        339 HIT:        336 MISS:          3 MSHR_MERGE:          0
cpu0->LLC TRANSLATION  ACCESS:        116 HIT:         27 MISS:         89 MSHR_MERGE:          0
cpu0->LLC PREFETCH REQUESTED:          0 ISSUED:          0 USEFUL:          0 USELESS:          0
cpu0->LLC AVERAGE MISS LATENCY: 150.9 cycles

DRAM Statistics

Channel 0 RQ ROW_BUFFER_HIT:          6
  ROW_BUFFER_MISS:       1265
  AVG DBUS CONGESTED CYCLE: 3.723
Channel 0 WQ ROW_BUFFER_HIT:          1
  ROW_BUFFER_MISS:         11
  FULL:          0
Channel 0 REFRESHES ISSUED:       6353
