[VMEM] WARNING: physical memory size is smaller than virtual memory size.

*** ChampSim Multicore Out-of-Order Simulator ***
Warmup Instructions: 50000000
Simulation Instructions: 100000000
Number of CPUs: 1
Page size: 4096

Off-chip DRAM Size: 16 GiB Channels: 1 Width: 64-bit Data Rate: 3205 MT/s
Heartbeat CPU 0 instructions: 10000001 cycles: 2536789 heartbeat IPC: 3.942 cumulative IPC: 3.942 (Simulation time: 00 hr 00 min 22 sec)
Heartbeat CPU 0 instructions: 20000003 cycles: 5064849 heartbeat IPC: 3.956 cumulative IPC: 3.949 (Simulation time: 00 hr 00 min 46 sec)
Heartbeat CPU 0 instructions: 30000005 cycles: 7582204 heartbeat IPC: 3.972 cumulative IPC: 3.957 (Simulation time: 00 hr 01 min 09 sec)
Heartbeat CPU 0 instructions: 40000007 cycles: 10097412 heartbeat IPC: 3.976 cumulative IPC: 3.961 (Simulation time: 00 hr 01 min 33 sec)
Warmup finished CPU 0 instructions: 50000003 cycles: 12613329 cumulative IPC: 3.964 (Simulation time: 00 hr 01 min 55 sec)
Warmup complete CPU 0 instructions: 50000003 cycles: 12613329 cumulative IPC: 3.964 (Simulation time: 00 hr 01 min 55 sec)
Heartbeat CPU 0 instructions: 50000007 cycles: 12613330 heartbeat IPC: 3.975 cumulative IPC: 4 (Simulation time: 00 hr 01 min 55 sec)
Heartbeat CPU 0 instructions: 60000008 cycles: 16474047 heartbeat IPC: 2.59 cumulative IPC: 2.59 (Simulation time: 00 hr 02 min 20 sec)
Heartbeat CPU 0 instructions: 70000009 cycles: 20336382 heartbeat IPC: 2.589 cumulative IPC: 2.59 (Simulation time: 00 hr 02 min 45 sec)
Heartbeat CPU 0 instructions: 80000010 cycles: 24200615 heartbeat IPC: 2.588 cumulative IPC: 2.589 (Simulation time: 00 hr 03 min 11 sec)
Heartbeat CPU 0 instructions: 90000011 cycles: 28078073 heartbeat IPC: 2.579 cumulative IPC: 2.587 (Simulation time: 00 hr 03 min 36 sec)
Heartbeat CPU 0 instructions: 100000015 cycles: 31825927 heartbeat IPC: 2.668 cumulative IPC: 2.602 (Simulation time: 00 hr 04 min 00 sec)
Heartbeat CPU 0 instructions: 110000016 cycles: 35418636 heartbeat IPC: 2.783 cumulative IPC: 2.631 (Simulation time: 00 hr 04 min 25 sec)
Heartbeat CPU 0 instructions: 120000017 cycles: 39020119 heartbeat IPC: 2.777 cumulative IPC: 2.651 (Simulation time: 00 hr 04 min 50 sec)
Heartbeat CPU 0 instructions: 130000018 cycles: 42660432 heartbeat IPC: 2.747 cumulative IPC: 2.662 (Simulation time: 00 hr 05 min 14 sec)
Heartbeat CPU 0 instructions: 140000020 cycles: 52463099 heartbeat IPC: 1.02 cumulative IPC: 2.258 (Simulation time: 00 hr 05 min 57 sec)
Simulation finished CPU 0 instructions: 100000003 cycles: 45915510 cumulative IPC: 2.178 (Simulation time: 00 hr 06 min 29 sec)
Simulation complete CPU 0 instructions: 100000003 cycles: 45915510 cumulative IPC: 2.178 (Simulation time: 00 hr 06 min 29 sec)

ChampSim completed all CPUs

=== Simulation ===
CPU 0 runs 625.x264_s-18B.champsimtrace.xz

Region of Interest Statistics

CPU 0 cumulative IPC: 2.178 instructions: 100000003 cycles: 45915510
CPU 0 Branch Prediction Accuracy: 87.37% MPKI: 6.356 Average ROB Occupancy at Mispredict: 62.21
Branch type MPKI
BRANCH_DIRECT_JUMP: 0.00129
BRANCH_INDIRECT: 0.0005
BRANCH_CONDITIONAL: 6.278
BRANCH_DIRECT_CALL: 0.00205
BRANCH_INDIRECT_CALL: 0.01099
BRANCH_RETURN: 0.06297

cpu0->cpu0_STLB TOTAL        ACCESS:      32366 HIT:      31131 MISS:       1235 MSHR_MERGE:          0
cpu0->cpu0_STLB LOAD         ACCESS:      32366 HIT:      31131 MISS:       1235 MSHR_MERGE:          0
cpu0->cpu0_STLB RFO          ACCESS:          0 HIT:          0 MISS:          0 MSHR_MERGE:          0
cpu0->cpu0_STLB PREFETCH     ACCESS:          0 HIT:          0 MISS:          0 MSHR_MERGE:          0
cpu0->cpu0_STLB WRITE        ACCESS:          0 HIT:          0 MISS:          0 MSHR_MERGE:          0
cpu0->cpu0_STLB TRANSLATION  ACCESS:          0 HIT:          0 MISS:          0 MSHR_MERGE:          0
cpu0->cpu0_STLB PREFETCH REQUESTED:          0 ISSUED:          0 USEFUL:          0 USELESS:          0
cpu0->cpu0_STLB AVERAGE MISS LATENCY: 790.3 cycles
cpu0->cpu0_L2C TOTAL        ACCESS:     133450 HIT:      54789 MISS:      78661 MSHR_MERGE:          0
cpu0->cpu0_L2C LOAD         ACCESS:     106609 HIT:      44876 MISS:      61733 MSHR_MERGE:          0
cpu0->cpu0_L2C RFO          ACCESS:       9582 HIT:       1266 MISS:       8316 MSHR_MERGE:          0
cpu0->cpu0_L2C PREFETCH     ACCESS:          0 HIT:          0 MISS:          0 MSHR_MERGE:          0
cpu0->cpu0_L2C WRITE        ACCESS:      15073 HIT:       8630 MISS:       6443 MSHR_MERGE:          0
cpu0->cpu0_L2C TRANSLATION  ACCESS:       2186 HIT:         17 MISS:       2169 MSHR_MERGE:          0
cpu0->cpu0_L2C PREFETCH REQUESTED:          0 ISSUED:          0 USEFUL:          0 USELESS:          0
cpu0->cpu0_L2C AVERAGE MISS LATENCY: 138.2 cycles
cpu0->cpu0_L1I TOTAL        ACCESS:    8379320 HIT:    8312540 MISS:      66780 MSHR_MERGE:      23962
cpu0->cpu0_L1I LOAD         ACCESS:    8379320 HIT:    8312540 MISS:      66780 MSHR_MERGE:      23962
cpu0->cpu0_L1I RFO          ACCESS:          0 HIT:          0 MISS:          0 MSHR_MERGE:          0
cpu0->cpu0_L1I PREFETCH     ACCESS:          0 HIT:          0 MISS:          0 MSHR_MERGE:          0
cpu0->cpu0_L1I WRITE        ACCESS:          0 HIT:          0 MISS:          0 MSHR_MERGE:          0
cpu0->cpu0_L1I TRANSLATION  ACCESS:          0 HIT:          0 MISS:          0 MSHR_MERGE:          0
cpu0->cpu0_L1I PREFETCH REQUESTED:          0 ISSUED:          0 USEFUL:          0 USELESS:          0
cpu0->cpu0_L1I AVERAGE MISS LATENCY: 17.67 cycles
cpu0->cpu0_L1D TOTAL        ACCESS:   21234072 HIT:   21067709 MISS:     166363 MSHR_MERGE:      90803
cpu0->cpu0_L1D LOAD         ACCESS:   14666485 HIT:   14550074 MISS:     116411 MSHR_MERGE:      52620
cpu0->cpu0_L1D RFO          ACCESS:          0 HIT:          0 MISS:          0 MSHR_MERGE:          0
cpu0->cpu0_L1D PREFETCH     ACCESS:          0 HIT:          0 MISS:          0 MSHR_MERGE:          0
cpu0->cpu0_L1D WRITE        ACCESS:    6565091 HIT:    6517402 MISS:      47689 MSHR_MERGE:      38106
cpu0->cpu0_L1D TRANSLATION  ACCESS:       2496 HIT:        233 MISS:       2263 MSHR_MERGE:         77
cpu0->cpu0_L1D PREFETCH REQUESTED:          0 ISSUED:          0 USEFUL:          0 USELESS:          0
cpu0->cpu0_L1D AVERAGE MISS LATENCY: 146.6 cycles
cpu0->cpu0_ITLB TOTAL        ACCESS:    7517556 HIT:    7516512 MISS:       1044 MSHR_MERGE:        692
cpu0->cpu0_ITLB LOAD         ACCESS:    7517556 HIT:    7516512 MISS:       1044 MSHR_MERGE:        692
cpu0->cpu0_ITLB RFO          ACCESS:          0 HIT:          0 MISS:          0 MSHR_MERGE:          0
cpu0->cpu0_ITLB PREFETCH     ACCESS:          0 HIT:          0 MISS:          0 MSHR_MERGE:          0
cpu0->cpu0_ITLB WRITE        ACCESS:          0 HIT:          0 MISS:          0 MSHR_MERGE:          0
cpu0->cpu0_ITLB TRANSLATION  ACCESS:          0 HIT:          0 MISS:          0 MSHR_MERGE:          0
cpu0->cpu0_ITLB PREFETCH REQUESTED:          0 ISSUED:          0 USEFUL:          0 USELESS:          0
cpu0->cpu0_ITLB AVERAGE MISS LATENCY: 150 cycles
cpu0->cpu0_DTLB TOTAL        ACCESS:   20193168 HIT:   20126507 MISS:      66661 MSHR_MERGE:      34647
cpu0->cpu0_DTLB LOAD         ACCESS:   20193168 HIT:   20126507 MISS:      66661 MSHR_MERGE:      34647
cpu0->cpu0_DTLB RFO          ACCESS:          0 HIT:          0 MISS:          0 MSHR_MERGE:          0
cpu0->cpu0_DTLB PREFETCH     ACCESS:          0 HIT:          0 MISS:          0 MSHR_MERGE:          0
cpu0->cpu0_DTLB WRITE        ACCESS:          0 HIT:          0 MISS:          0 MSHR_MERGE:          0
cpu0->cpu0_DTLB TRANSLATION  ACCESS:          0 HIT:          0 MISS:          0 MSHR_MERGE:          0
cpu0->cpu0_DTLB PREFETCH REQUESTED:          0 ISSUED:          0 USEFUL:          0 USELESS:          0
cpu0->cpu0_DTLB AVERAGE MISS LATENCY: 33.93 cycles
cpu0->LLC TOTAL        ACCESS:      79133 HIT:      22534 MISS:      56599 MSHR_MERGE:          0
cpu0->LLC LOAD         ACCESS:      61733 HIT:      15621 MISS:      46112 MSHR_MERGE:          0
cpu0->LLC RFO          ACCESS:       8316 HIT:        206 MISS:       8110 MSHR_MERGE:          0
cpu0->LLC PREFETCH     ACCESS:          0 HIT:          0 MISS:          0 MSHR_MERGE:          0
cpu0->LLC WRITE        ACCESS:       6915 HIT:       6684 MISS:        231 MSHR_MERGE:          0
cpu0->LLC TRANSLATION  ACCESS:       2169 HIT:         23 MISS:       2146 MSHR_MERGE:          0
cpu0->LLC PREFETCH REQUESTED:          0 ISSUED:          0 USEFUL:          0 USELESS:          0
cpu0->LLC AVERAGE MISS LATENCY: 171.6 cycles

DRAM Statistics

Channel 0 RQ ROW_BUFFER_HIT:       1712
  ROW_BUFFER_MISS:      54656
  AVG DBUS CONGESTED CYCLE: 8.902
Channel 0 WQ ROW_BUFFER_HIT:        275
  ROW_BUFFER_MISS:        874
  FULL:          0
Channel 0 REFRESHES ISSUED:       3826
