[VMEM] WARNING: physical memory size is smaller than virtual memory size.

*** ChampSim Multicore Out-of-Order Simulator ***
Warmup Instructions: 50000000
Simulation Instructions: 100000000
Number of CPUs: 1
Page size: 4096

Initialize SIGNATURE TABLE
ST_SET: 1
ST_WAY: 256
ST_TAG_BIT: 16

Initialize PATTERN TABLE
PT_SET: 512
PT_WAY: 4
SIG_DELTA_BIT: 7
C_SIG_BIT: 4
C_DELTA_BIT: 4

Initialize PREFETCH FILTER
FILTER_SET: 1024
Off-chip DRAM Size: 16 GiB Channels: 1 Width: 64-bit Data Rate: 3205 MT/s
Heartbeat CPU 0 instructions: 10000000 cycles: 2596366 heartbeat IPC: 3.852 cumulative IPC: 3.852 (Simulation time: 00 hr 00 min 24 sec)
Heartbeat CPU 0 instructions: 20000000 cycles: 5231938 heartbeat IPC: 3.794 cumulative IPC: 3.823 (Simulation time: 00 hr 00 min 50 sec)
Heartbeat CPU 0 instructions: 30000000 cycles: 7732199 heartbeat IPC: 4 cumulative IPC: 3.88 (Simulation time: 00 hr 01 min 10 sec)
Heartbeat CPU 0 instructions: 40000004 cycles: 10232485 heartbeat IPC: 4 cumulative IPC: 3.909 (Simulation time: 00 hr 01 min 30 sec)
Warmup finished CPU 0 instructions: 50000002 cycles: 12736033 cumulative IPC: 3.926 (Simulation time: 00 hr 01 min 51 sec)
Warmup complete CPU 0 instructions: 50000002 cycles: 12736033 cumulative IPC: 3.926 (Simulation time: 00 hr 01 min 51 sec)
Heartbeat CPU 0 instructions: 50000007 cycles: 12736034 heartbeat IPC: 3.994 cumulative IPC: 5 (Simulation time: 00 hr 01 min 51 sec)
Heartbeat CPU 0 instructions: 60000007 cycles: 17644540 heartbeat IPC: 2.037 cumulative IPC: 2.037 (Simulation time: 00 hr 02 min 16 sec)
Heartbeat CPU 0 instructions: 70000007 cycles: 22551374 heartbeat IPC: 2.038 cumulative IPC: 2.038 (Simulation time: 00 hr 02 min 42 sec)
Heartbeat CPU 0 instructions: 80000010 cycles: 27465054 heartbeat IPC: 2.035 cumulative IPC: 2.037 (Simulation time: 00 hr 03 min 07 sec)
Heartbeat CPU 0 instructions: 90000012 cycles: 32376909 heartbeat IPC: 2.036 cumulative IPC: 2.037 (Simulation time: 00 hr 03 min 32 sec)
Heartbeat CPU 0 instructions: 100000013 cycles: 37278286 heartbeat IPC: 2.04 cumulative IPC: 2.037 (Simulation time: 00 hr 03 min 57 sec)
Heartbeat CPU 0 instructions: 110000015 cycles: 42170834 heartbeat IPC: 2.044 cumulative IPC: 2.038 (Simulation time: 00 hr 04 min 22 sec)
Heartbeat CPU 0 instructions: 120000018 cycles: 47060399 heartbeat IPC: 2.045 cumulative IPC: 2.039 (Simulation time: 00 hr 04 min 47 sec)
Heartbeat CPU 0 instructions: 130000022 cycles: 51949238 heartbeat IPC: 2.045 cumulative IPC: 2.04 (Simulation time: 00 hr 05 min 12 sec)
Heartbeat CPU 0 instructions: 140000026 cycles: 56838065 heartbeat IPC: 2.045 cumulative IPC: 2.041 (Simulation time: 00 hr 05 min 36 sec)
Simulation finished CPU 0 instructions: 100000001 cycles: 49002080 cumulative IPC: 2.041 (Simulation time: 00 hr 06 min 01 sec)
Simulation complete CPU 0 instructions: 100000001 cycles: 49002080 cumulative IPC: 2.041 (Simulation time: 00 hr 06 min 01 sec)

ChampSim completed all CPUs

=== Simulation ===
CPU 0 runs 603.bwaves_s-1080B.champsimtrace.xz

Region of Interest Statistics

CPU 0 cumulative IPC: 2.041 instructions: 100000001 cycles: 49002080
CPU 0 Branch Prediction Accuracy: 87.05% MPKI: 18.85 Average ROB Occupancy at Mispredict: 32.43
Branch type MPKI
BRANCH_DIRECT_JUMP: 0.145
BRANCH_INDIRECT: 0
BRANCH_CONDITIONAL: 18.62
BRANCH_DIRECT_CALL: 0
BRANCH_INDIRECT_CALL: 0
BRANCH_RETURN: 0.08835

cpu0->cpu0_STLB TOTAL        ACCESS:         49 HIT:          3 MISS:         46 MSHR_MERGE:          0
cpu0->cpu0_STLB LOAD         ACCESS:         49 HIT:          3 MISS:         46 MSHR_MERGE:          0
cpu0->cpu0_STLB RFO          ACCESS:          0 HIT:          0 MISS:          0 MSHR_MERGE:          0
cpu0->cpu0_STLB PREFETCH     ACCESS:          0 HIT:          0 MISS:          0 MSHR_MERGE:          0
cpu0->cpu0_STLB WRITE        ACCESS:          0 HIT:          0 MISS:          0 MSHR_MERGE:          0
cpu0->cpu0_STLB TRANSLATION  ACCESS:          0 HIT:          0 MISS:          0 MSHR_MERGE:          0
cpu0->cpu0_STLB PREFETCH REQUESTED:          0 ISSUED:          0 USEFUL:          0 USELESS:          0
cpu0->cpu0_STLB AVERAGE MISS LATENCY: 726.8 cycles
cpu0->cpu0_L2C TOTAL        ACCESS:       7636 HIT:        313 MISS:       7323 MSHR_MERGE:          5
cpu0->cpu0_L2C LOAD         ACCESS:        313 HIT:        217 MISS:         96 MSHR_MERGE:          0
cpu0->cpu0_L2C RFO          ACCESS:       2759 HIT:         40 MISS:       2719 MSHR_MERGE:          0
cpu0->cpu0_L2C PREFETCH     ACCESS:       1749 HIT:         29 MISS:       1720 MSHR_MERGE:          5
cpu0->cpu0_L2C WRITE        ACCESS:       2759 HIT:         27 MISS:       2732 MSHR_MERGE:          0
cpu0->cpu0_L2C TRANSLATION  ACCESS:         56 HIT:          0 MISS:         56 MSHR_MERGE:          0
cpu0->cpu0_L2C PREFETCH REQUESTED:       1749 ISSUED:       1749 USEFUL:        183 USELESS:          0
cpu0->cpu0_L2C AVERAGE MISS LATENCY: 135.4 cycles
cpu0->cpu0_L1I TOTAL        ACCESS:     766797 HIT:     766797 MISS:          0 MSHR_MERGE:          0
cpu0->cpu0_L1I LOAD         ACCESS:     766797 HIT:     766797 MISS:          0 MSHR_MERGE:          0
cpu0->cpu0_L1I RFO          ACCESS:          0 HIT:          0 MISS:          0 MSHR_MERGE:          0
cpu0->cpu0_L1I PREFETCH     ACCESS:          0 HIT:          0 MISS:          0 MSHR_MERGE:          0
cpu0->cpu0_L1I WRITE        ACCESS:          0 HIT:          0 MISS:          0 MSHR_MERGE:          0
cpu0->cpu0_L1I TRANSLATION  ACCESS:          0 HIT:          0 MISS:          0 MSHR_MERGE:          0
cpu0->cpu0_L1I PREFETCH REQUESTED:          0 ISSUED:          0 USEFUL:          0 USELESS:          0
cpu0->cpu0_L1I AVERAGE MISS LATENCY: - cycles
cpu0->cpu0_L1D TOTAL        ACCESS:   24063450 HIT:   24043345 MISS:      20105 MSHR_MERGE:      16977
cpu0->cpu0_L1D LOAD         ACCESS:   20677513 HIT:   20677040 MISS:        473 MSHR_MERGE:        160
cpu0->cpu0_L1D RFO          ACCESS:          0 HIT:          0 MISS:          0 MSHR_MERGE:          0
cpu0->cpu0_L1D PREFETCH     ACCESS:          0 HIT:          0 MISS:          0 MSHR_MERGE:          0
cpu0->cpu0_L1D WRITE        ACCESS:    3385845 HIT:    3366269 MISS:      19576 MSHR_MERGE:      16817
cpu0->cpu0_L1D TRANSLATION  ACCESS:         92 HIT:         36 MISS:         56 MSHR_MERGE:          0
cpu0->cpu0_L1D PREFETCH REQUESTED:          0 ISSUED:          0 USEFUL:          0 USELESS:          0
cpu0->cpu0_L1D AVERAGE MISS LATENCY: 247.9 cycles
cpu0->cpu0_ITLB TOTAL        ACCESS:     572286 HIT:     572286 MISS:          0 MSHR_MERGE:          0
cpu0->cpu0_ITLB LOAD         ACCESS:     572286 HIT:     572286 MISS:          0 MSHR_MERGE:          0
cpu0->cpu0_ITLB RFO          ACCESS:          0 HIT:          0 MISS:          0 MSHR_MERGE:          0
cpu0->cpu0_ITLB PREFETCH     ACCESS:          0 HIT:          0 MISS:          0 MSHR_MERGE:          0
cpu0->cpu0_ITLB WRITE        ACCESS:          0 HIT:          0 MISS:          0 MSHR_MERGE:          0
cpu0->cpu0_ITLB TRANSLATION  ACCESS:          0 HIT:          0 MISS:          0 MSHR_MERGE:          0
cpu0->cpu0_ITLB PREFETCH REQUESTED:          0 ISSUED:          0 USEFUL:          0 USELESS:          0
cpu0->cpu0_ITLB AVERAGE MISS LATENCY: - cycles
cpu0->cpu0_DTLB TOTAL        ACCESS:   23363238 HIT:   23362707 MISS:        531 MSHR_MERGE:        482
cpu0->cpu0_DTLB LOAD         ACCESS:   23363238 HIT:   23362707 MISS:        531 MSHR_MERGE:        482
cpu0->cpu0_DTLB RFO          ACCESS:          0 HIT:          0 MISS:          0 MSHR_MERGE:          0
cpu0->cpu0_DTLB PREFETCH     ACCESS:          0 HIT:          0 MISS:          0 MSHR_MERGE:          0
cpu0->cpu0_DTLB WRITE        ACCESS:          0 HIT:          0 MISS:          0 MSHR_MERGE:          0
cpu0->cpu0_DTLB TRANSLATION  ACCESS:          0 HIT:          0 MISS:          0 MSHR_MERGE:          0
cpu0->cpu0_DTLB PREFETCH REQUESTED:          0 ISSUED:          0 USEFUL:          0 USELESS:          0
cpu0->cpu0_DTLB AVERAGE MISS LATENCY: 688.3 cycles
cpu0->LLC TOTAL        ACCESS:       7273 HIT:       4147 MISS:       3126 MSHR_MERGE:         95
cpu0->LLC LOAD         ACCESS:         96 HIT:         92 MISS:          4 MSHR_MERGE:          0
cpu0->LLC RFO          ACCESS:       2719 HIT:         13 MISS:       2706 MSHR_MERGE:          0
cpu0->LLC PREFETCH     ACCESS:       1708 HIT:       1347 MISS:        361 MSHR_MERGE:         95
cpu0->LLC WRITE        ACCESS:       2694 HIT:       2692 MISS:          2 MSHR_MERGE:          0
cpu0->LLC TRANSLATION  ACCESS:         56 HIT:          3 MISS:         53 MSHR_MERGE:          0
cpu0->LLC PREFETCH REQUESTED:          0 ISSUED:          0 USEFUL:          0 USELESS:          0
cpu0->LLC AVERAGE MISS LATENCY: 253.8 cycles

DRAM Statistics

Channel 0 RQ ROW_BUFFER_HIT:         32
  ROW_BUFFER_MISS:       2997
  AVG DBUS CONGESTED CYCLE: 7.117
Channel 0 WQ ROW_BUFFER_HIT:        493
  ROW_BUFFER_MISS:       1899
  FULL:          0
Channel 0 REFRESHES ISSUED:       4083
