[VMEM] WARNING: physical memory size is smaller than virtual memory size.

*** ChampSim Multicore Out-of-Order Simulator ***
Warmup Instructions: 50000000
Simulation Instructions: 100000000
Number of CPUs: 1
Page size: 4096

Off-chip DRAM Size: 16 GiB Channels: 1 Width: 64-bit Data Rate: 3205 MT/s
Heartbeat CPU 0 instructions: 10000000 cycles: 2596496 heartbeat IPC: 3.851 cumulative IPC: 3.851 (Simulation time: 00 hr 00 min 22 sec)
Heartbeat CPU 0 instructions: 20000000 cycles: 5232145 heartbeat IPC: 3.794 cumulative IPC: 3.823 (Simulation time: 00 hr 00 min 46 sec)
Heartbeat CPU 0 instructions: 30000000 cycles: 7732406 heartbeat IPC: 4 cumulative IPC: 3.88 (Simulation time: 00 hr 01 min 06 sec)
Heartbeat CPU 0 instructions: 40000004 cycles: 10232692 heartbeat IPC: 4 cumulative IPC: 3.909 (Simulation time: 00 hr 01 min 26 sec)
Warmup finished CPU 0 instructions: 50000002 cycles: 12736256 cumulative IPC: 3.926 (Simulation time: 00 hr 01 min 46 sec)
Warmup complete CPU 0 instructions: 50000002 cycles: 12736256 cumulative IPC: 3.926 (Simulation time: 00 hr 01 min 46 sec)
Heartbeat CPU 0 instructions: 50000007 cycles: 12736257 heartbeat IPC: 3.994 cumulative IPC: 5 (Simulation time: 00 hr 01 min 46 sec)
Heartbeat CPU 0 instructions: 60000007 cycles: 17645571 heartbeat IPC: 2.037 cumulative IPC: 2.037 (Simulation time: 00 hr 02 min 12 sec)
Heartbeat CPU 0 instructions: 70000007 cycles: 22552771 heartbeat IPC: 2.038 cumulative IPC: 2.037 (Simulation time: 00 hr 02 min 37 sec)
Heartbeat CPU 0 instructions: 80000010 cycles: 27467041 heartbeat IPC: 2.035 cumulative IPC: 2.037 (Simulation time: 00 hr 03 min 05 sec)
Heartbeat CPU 0 instructions: 90000012 cycles: 32392939 heartbeat IPC: 2.03 cumulative IPC: 2.035 (Simulation time: 00 hr 03 min 32 sec)
Heartbeat CPU 0 instructions: 100000013 cycles: 37314095 heartbeat IPC: 2.032 cumulative IPC: 2.034 (Simulation time: 00 hr 03 min 58 sec)
Heartbeat CPU 0 instructions: 110000015 cycles: 42218884 heartbeat IPC: 2.039 cumulative IPC: 2.035 (Simulation time: 00 hr 04 min 24 sec)
Heartbeat CPU 0 instructions: 120000018 cycles: 47109400 heartbeat IPC: 2.045 cumulative IPC: 2.036 (Simulation time: 00 hr 04 min 49 sec)
Heartbeat CPU 0 instructions: 130000022 cycles: 51998869 heartbeat IPC: 2.045 cumulative IPC: 2.038 (Simulation time: 00 hr 05 min 14 sec)
Heartbeat CPU 0 instructions: 140000026 cycles: 56888483 heartbeat IPC: 2.045 cumulative IPC: 2.038 (Simulation time: 00 hr 05 min 40 sec)
Simulation finished CPU 0 instructions: 100000001 cycles: 49064602 cumulative IPC: 2.038 (Simulation time: 00 hr 06 min 06 sec)
Simulation complete CPU 0 instructions: 100000001 cycles: 49064602 cumulative IPC: 2.038 (Simulation time: 00 hr 06 min 06 sec)

ChampSim completed all CPUs

=== Simulation ===
CPU 0 runs 603.bwaves_s-1080B.champsimtrace.xz

Region of Interest Statistics

CPU 0 cumulative IPC: 2.038 instructions: 100000001 cycles: 49064602
CPU 0 Branch Prediction Accuracy: 87.05% MPKI: 18.85 Average ROB Occupancy at Mispredict: 32.43
Branch type MPKI
BRANCH_DIRECT_JUMP: 0.145
BRANCH_INDIRECT: 0
BRANCH_CONDITIONAL: 18.62
BRANCH_DIRECT_CALL: 0
BRANCH_INDIRECT_CALL: 0
BRANCH_RETURN: 0.08835

cpu0->cpu0_STLB TOTAL        ACCESS:         49 HIT:          3 MISS:         46 MSHR_MERGE:          0
cpu0->cpu0_STLB LOAD         ACCESS:         49 HIT:          3 MISS:         46 MSHR_MERGE:          0
cpu0->cpu0_STLB RFO          ACCESS:          0 HIT:          0 MISS:          0 MSHR_MERGE:          0
cpu0->cpu0_STLB PREFETCH     ACCESS:          0 HIT:          0 MISS:          0 MSHR_MERGE:          0
cpu0->cpu0_STLB WRITE        ACCESS:          0 HIT:          0 MISS:          0 MSHR_MERGE:          0
cpu0->cpu0_STLB TRANSLATION  ACCESS:          0 HIT:          0 MISS:          0 MSHR_MERGE:          0
cpu0->cpu0_STLB PREFETCH REQUESTED:          0 ISSUED:          0 USEFUL:          0 USELESS:          0
cpu0->cpu0_STLB AVERAGE MISS LATENCY: 709.3 cycles
cpu0->cpu0_L2C TOTAL        ACCESS:       5887 HIT:        799 MISS:       5088 MSHR_MERGE:          0
cpu0->cpu0_L2C LOAD         ACCESS:        313 HIT:         36 MISS:        277 MSHR_MERGE:          0
cpu0->cpu0_L2C RFO          ACCESS:       2759 HIT:         53 MISS:       2706 MSHR_MERGE:          0
cpu0->cpu0_L2C PREFETCH     ACCESS:          0 HIT:          0 MISS:          0 MSHR_MERGE:          0
cpu0->cpu0_L2C WRITE        ACCESS:       2759 HIT:        709 MISS:       2050 MSHR_MERGE:          0
cpu0->cpu0_L2C TRANSLATION  ACCESS:         56 HIT:          1 MISS:         55 MSHR_MERGE:          0
cpu0->cpu0_L2C PREFETCH REQUESTED:          0 ISSUED:          0 USEFUL:          0 USELESS:          0
cpu0->cpu0_L2C AVERAGE MISS LATENCY: 128.2 cycles
cpu0->cpu0_L1I TOTAL        ACCESS:     767030 HIT:     767030 MISS:          0 MSHR_MERGE:          0
cpu0->cpu0_L1I LOAD         ACCESS:     767030 HIT:     767030 MISS:          0 MSHR_MERGE:          0
cpu0->cpu0_L1I RFO          ACCESS:          0 HIT:          0 MISS:          0 MSHR_MERGE:          0
cpu0->cpu0_L1I PREFETCH     ACCESS:          0 HIT:          0 MISS:          0 MSHR_MERGE:          0
cpu0->cpu0_L1I WRITE        ACCESS:          0 HIT:          0 MISS:          0 MSHR_MERGE:          0
cpu0->cpu0_L1I TRANSLATION  ACCESS:          0 HIT:          0 MISS:          0 MSHR_MERGE:          0
cpu0->cpu0_L1I PREFETCH REQUESTED:          0 ISSUED:          0 USEFUL:          0 USELESS:          0
cpu0->cpu0_L1I AVERAGE MISS LATENCY: - cycles
cpu0->cpu0_L1D TOTAL        ACCESS:   24063460 HIT:   24044067 MISS:      19393 MSHR_MERGE:      16265
cpu0->cpu0_L1D LOAD         ACCESS:   20677524 HIT:   20677049 MISS:        475 MSHR_MERGE:        162
cpu0->cpu0_L1D RFO          ACCESS:          0 HIT:          0 MISS:          0 MSHR_MERGE:          0
cpu0->cpu0_L1D PREFETCH     ACCESS:          0 HIT:          0 MISS:          0 MSHR_MERGE:          0
cpu0->cpu0_L1D WRITE        ACCESS:    3385844 HIT:    3366982 MISS:      18862 MSHR_MERGE:      16103
cpu0->cpu0_L1D TRANSLATION  ACCESS:         92 HIT:         36 MISS:         56 MSHR_MERGE:          0
cpu0->cpu0_L1D PREFETCH REQUESTED:          0 ISSUED:          0 USEFUL:          0 USELESS:          0
cpu0->cpu0_L1D AVERAGE MISS LATENCY: 215 cycles
cpu0->cpu0_ITLB TOTAL        ACCESS:     572563 HIT:     572563 MISS:          0 MSHR_MERGE:          0
cpu0->cpu0_ITLB LOAD         ACCESS:     572563 HIT:     572563 MISS:          0 MSHR_MERGE:          0
cpu0->cpu0_ITLB RFO          ACCESS:          0 HIT:          0 MISS:          0 MSHR_MERGE:          0
cpu0->cpu0_ITLB PREFETCH     ACCESS:          0 HIT:          0 MISS:          0 MSHR_MERGE:          0
cpu0->cpu0_ITLB WRITE        ACCESS:          0 HIT:          0 MISS:          0 MSHR_MERGE:          0
cpu0->cpu0_ITLB TRANSLATION  ACCESS:          0 HIT:          0 MISS:          0 MSHR_MERGE:          0
cpu0->cpu0_ITLB PREFETCH REQUESTED:          0 ISSUED:          0 USEFUL:          0 USELESS:          0
cpu0->cpu0_ITLB AVERAGE MISS LATENCY: - cycles
cpu0->cpu0_DTLB TOTAL        ACCESS:   23363252 HIT:   23362721 MISS:        531 MSHR_MERGE:        482
cpu0->cpu0_DTLB LOAD         ACCESS:   23363252 HIT:   23362721 MISS:        531 MSHR_MERGE:        482
cpu0->cpu0_DTLB RFO          ACCESS:          0 HIT:          0 MISS:          0 MSHR_MERGE:          0
cpu0->cpu0_DTLB PREFETCH     ACCESS:          0 HIT:          0 MISS:          0 MSHR_MERGE:          0
cpu0->cpu0_DTLB WRITE        ACCESS:          0 HIT:          0 MISS:          0 MSHR_MERGE:          0
cpu0->cpu0_DTLB TRANSLATION  ACCESS:          0 HIT:          0 MISS:          0 MSHR_MERGE:          0
cpu0->cpu0_DTLB PREFETCH REQUESTED:          0 ISSUED:          0 USEFUL:          0 USELESS:          0
cpu0->cpu0_DTLB AVERAGE MISS LATENCY: 671.8 cycles
cpu0->LLC TOTAL        ACCESS:       5734 HIT:       2672 MISS:       3062 MSHR_MERGE:          0
cpu0->LLC LOAD         ACCESS:        277 HIT:          7 MISS:        270 MSHR_MERGE:          0
cpu0->LLC RFO          ACCESS:       2706 HIT:          0 MISS:       2706 MSHR_MERGE:          0
cpu0->LLC PREFETCH     ACCESS:          0 HIT:          0 MISS:          0 MSHR_MERGE:          0
cpu0->LLC WRITE        ACCESS:       2696 HIT:       2663 MISS:         33 MSHR_MERGE:          0
cpu0->LLC TRANSLATION  ACCESS:         55 HIT:          2 MISS:         53 MSHR_MERGE:          0
cpu0->LLC PREFETCH REQUESTED:          0 ISSUED:          0 USEFUL:          0 USELESS:          0
cpu0->LLC AVERAGE MISS LATENCY: 194.6 cycles

DRAM Statistics

Channel 0 RQ ROW_BUFFER_HIT:         11
  ROW_BUFFER_MISS:       3018
  AVG DBUS CONGESTED CYCLE: 8.631
Channel 0 WQ ROW_BUFFER_HIT:        580
  ROW_BUFFER_MISS:       1775
  FULL:          0
Channel 0 REFRESHES ISSUED:       4089
