[VMEM] WARNING: physical memory size is smaller than virtual memory size.

*** ChampSim Multicore Out-of-Order Simulator ***
Warmup Instructions: 50000000
Simulation Instructions: 100000000
Number of CPUs: 1
Page size: 4096

Off-chip DRAM Size: 16 GiB Channels: 1 Width: 64-bit Data Rate: 3205 MT/s
Heartbeat CPU 0 instructions: 10000001 cycles: 2536814 heartbeat IPC: 3.942 cumulative IPC: 3.942 (Simulation time: 00 hr 00 min 22 sec)
Heartbeat CPU 0 instructions: 20000003 cycles: 5064879 heartbeat IPC: 3.956 cumulative IPC: 3.949 (Simulation time: 00 hr 00 min 47 sec)
Heartbeat CPU 0 instructions: 30000005 cycles: 7582164 heartbeat IPC: 3.973 cumulative IPC: 3.957 (Simulation time: 00 hr 01 min 10 sec)
Heartbeat CPU 0 instructions: 40000007 cycles: 10097372 heartbeat IPC: 3.976 cumulative IPC: 3.961 (Simulation time: 00 hr 01 min 32 sec)
Warmup finished CPU 0 instructions: 50000003 cycles: 12613289 cumulative IPC: 3.964 (Simulation time: 00 hr 01 min 54 sec)
Warmup complete CPU 0 instructions: 50000003 cycles: 12613289 cumulative IPC: 3.964 (Simulation time: 00 hr 01 min 54 sec)
Heartbeat CPU 0 instructions: 50000007 cycles: 12613290 heartbeat IPC: 3.975 cumulative IPC: 4 (Simulation time: 00 hr 01 min 54 sec)
Heartbeat CPU 0 instructions: 60000008 cycles: 16476380 heartbeat IPC: 2.589 cumulative IPC: 2.589 (Simulation time: 00 hr 02 min 21 sec)
Heartbeat CPU 0 instructions: 70000009 cycles: 20342620 heartbeat IPC: 2.586 cumulative IPC: 2.588 (Simulation time: 00 hr 02 min 46 sec)
Heartbeat CPU 0 instructions: 80000010 cycles: 24205803 heartbeat IPC: 2.589 cumulative IPC: 2.588 (Simulation time: 00 hr 03 min 11 sec)
Heartbeat CPU 0 instructions: 90000011 cycles: 28084933 heartbeat IPC: 2.578 cumulative IPC: 2.585 (Simulation time: 00 hr 03 min 36 sec)
Heartbeat CPU 0 instructions: 100000015 cycles: 31799662 heartbeat IPC: 2.692 cumulative IPC: 2.606 (Simulation time: 00 hr 04 min 00 sec)
Heartbeat CPU 0 instructions: 110000016 cycles: 35471839 heartbeat IPC: 2.723 cumulative IPC: 2.625 (Simulation time: 00 hr 04 min 25 sec)
Heartbeat CPU 0 instructions: 120000017 cycles: 39157067 heartbeat IPC: 2.714 cumulative IPC: 2.637 (Simulation time: 00 hr 04 min 49 sec)
Heartbeat CPU 0 instructions: 130000018 cycles: 42883971 heartbeat IPC: 2.683 cumulative IPC: 2.643 (Simulation time: 00 hr 05 min 14 sec)
Heartbeat CPU 0 instructions: 140000020 cycles: 52714214 heartbeat IPC: 1.017 cumulative IPC: 2.244 (Simulation time: 00 hr 05 min 55 sec)
Simulation finished CPU 0 instructions: 100000003 cycles: 46236676 cumulative IPC: 2.163 (Simulation time: 00 hr 06 min 27 sec)
Simulation complete CPU 0 instructions: 100000003 cycles: 46236676 cumulative IPC: 2.163 (Simulation time: 00 hr 06 min 27 sec)

ChampSim completed all CPUs

=== Simulation ===
CPU 0 runs 625.x264_s-18B.champsimtrace.xz

Region of Interest Statistics

CPU 0 cumulative IPC: 2.163 instructions: 100000003 cycles: 46236676
CPU 0 Branch Prediction Accuracy: 87.37% MPKI: 6.356 Average ROB Occupancy at Mispredict: 62.36
Branch type MPKI
BRANCH_DIRECT_JUMP: 0.00129
BRANCH_INDIRECT: 0.0005
BRANCH_CONDITIONAL: 6.278
BRANCH_DIRECT_CALL: 0.00205
BRANCH_INDIRECT_CALL: 0.01099
BRANCH_RETURN: 0.06297

cpu0->cpu0_STLB TOTAL        ACCESS:      32366 HIT:      31131 MISS:       1235 MSHR_MERGE:          0
cpu0->cpu0_STLB LOAD         ACCESS:      32366 HIT:      31131 MISS:       1235 MSHR_MERGE:          0
cpu0->cpu0_STLB RFO          ACCESS:          0 HIT:          0 MISS:          0 MSHR_MERGE:          0
cpu0->cpu0_STLB PREFETCH     ACCESS:          0 HIT:          0 MISS:          0 MSHR_MERGE:          0
cpu0->cpu0_STLB WRITE        ACCESS:          0 HIT:          0 MISS:          0 MSHR_MERGE:          0
cpu0->cpu0_STLB TRANSLATION  ACCESS:          0 HIT:          0 MISS:          0 MSHR_MERGE:          0
cpu0->cpu0_STLB PREFETCH REQUESTED:          0 ISSUED:          0 USEFUL:          0 USELESS:          0
cpu0->cpu0_STLB AVERAGE MISS LATENCY: 786.2 cycles
cpu0->cpu0_L2C TOTAL        ACCESS:     133381 HIT:      20964 MISS:     112417 MSHR_MERGE:          0
cpu0->cpu0_L2C LOAD         ACCESS:     106557 HIT:      16556 MISS:      90001 MSHR_MERGE:          0
cpu0->cpu0_L2C RFO          ACCESS:       9572 HIT:        936 MISS:       8636 MSHR_MERGE:          0
cpu0->cpu0_L2C PREFETCH     ACCESS:          0 HIT:          0 MISS:          0 MSHR_MERGE:          0
cpu0->cpu0_L2C WRITE        ACCESS:      15067 HIT:       3470 MISS:      11597 MSHR_MERGE:          0
cpu0->cpu0_L2C TRANSLATION  ACCESS:       2185 HIT:          2 MISS:       2183 MSHR_MERGE:          0
cpu0->cpu0_L2C PREFETCH REQUESTED:          0 ISSUED:          0 USEFUL:          0 USELESS:          0
cpu0->cpu0_L2C AVERAGE MISS LATENCY: 102.3 cycles
cpu0->cpu0_L1I TOTAL        ACCESS:    8379053 HIT:    8309916 MISS:      69137 MSHR_MERGE:      26351
cpu0->cpu0_L1I LOAD         ACCESS:    8379053 HIT:    8309916 MISS:      69137 MSHR_MERGE:      26351
cpu0->cpu0_L1I RFO          ACCESS:          0 HIT:          0 MISS:          0 MSHR_MERGE:          0
cpu0->cpu0_L1I PREFETCH     ACCESS:          0 HIT:          0 MISS:          0 MSHR_MERGE:          0
cpu0->cpu0_L1I WRITE        ACCESS:          0 HIT:          0 MISS:          0 MSHR_MERGE:          0
cpu0->cpu0_L1I TRANSLATION  ACCESS:          0 HIT:          0 MISS:          0 MSHR_MERGE:          0
cpu0->cpu0_L1I PREFETCH REQUESTED:          0 ISSUED:          0 USEFUL:          0 USELESS:          0
cpu0->cpu0_L1I AVERAGE MISS LATENCY: 25.21 cycles
cpu0->cpu0_L1D TOTAL        ACCESS:   21238508 HIT:   21071619 MISS:     166889 MSHR_MERGE:      91360
cpu0->cpu0_L1D LOAD         ACCESS:   14670912 HIT:   14554309 MISS:     116603 MSHR_MERGE:      52832
cpu0->cpu0_L1D RFO          ACCESS:          0 HIT:          0 MISS:          0 MSHR_MERGE:          0
cpu0->cpu0_L1D PREFETCH     ACCESS:          0 HIT:          0 MISS:          0 MSHR_MERGE:          0
cpu0->cpu0_L1D WRITE        ACCESS:    6565101 HIT:    6517077 MISS:      48024 MSHR_MERGE:      38451
cpu0->cpu0_L1D TRANSLATION  ACCESS:       2495 HIT:        233 MISS:       2262 MSHR_MERGE:         77
cpu0->cpu0_L1D PREFETCH REQUESTED:          0 ISSUED:          0 USEFUL:          0 USELESS:          0
cpu0->cpu0_L1D AVERAGE MISS LATENCY: 150.8 cycles
cpu0->cpu0_ITLB TOTAL        ACCESS:    7517188 HIT:    7516139 MISS:       1049 MSHR_MERGE:        697
cpu0->cpu0_ITLB LOAD         ACCESS:    7517188 HIT:    7516139 MISS:       1049 MSHR_MERGE:        697
cpu0->cpu0_ITLB RFO          ACCESS:          0 HIT:          0 MISS:          0 MSHR_MERGE:          0
cpu0->cpu0_ITLB PREFETCH     ACCESS:          0 HIT:          0 MISS:          0 MSHR_MERGE:          0
cpu0->cpu0_ITLB WRITE        ACCESS:          0 HIT:          0 MISS:          0 MSHR_MERGE:          0
cpu0->cpu0_ITLB TRANSLATION  ACCESS:          0 HIT:          0 MISS:          0 MSHR_MERGE:          0
cpu0->cpu0_ITLB PREFETCH REQUESTED:          0 ISSUED:          0 USEFUL:          0 USELESS:          0
cpu0->cpu0_ITLB AVERAGE MISS LATENCY: 152.9 cycles
cpu0->cpu0_DTLB TOTAL        ACCESS:   20196759 HIT:   20130105 MISS:      66654 MSHR_MERGE:      34640
cpu0->cpu0_DTLB LOAD         ACCESS:   20196759 HIT:   20130105 MISS:      66654 MSHR_MERGE:      34640
cpu0->cpu0_DTLB RFO          ACCESS:          0 HIT:          0 MISS:          0 MSHR_MERGE:          0
cpu0->cpu0_DTLB PREFETCH     ACCESS:          0 HIT:          0 MISS:          0 MSHR_MERGE:          0
cpu0->cpu0_DTLB WRITE        ACCESS:          0 HIT:          0 MISS:          0 MSHR_MERGE:          0
cpu0->cpu0_DTLB TRANSLATION  ACCESS:          0 HIT:          0 MISS:          0 MSHR_MERGE:          0
cpu0->cpu0_DTLB PREFETCH REQUESTED:          0 ISSUED:          0 USEFUL:          0 USELESS:          0
cpu0->cpu0_DTLB AVERAGE MISS LATENCY: 33.74 cycles
cpu0->LLC TOTAL        ACCESS:     111502 HIT:      53664 MISS:      57838 MSHR_MERGE:          0
cpu0->LLC LOAD         ACCESS:      90001 HIT:      42595 MISS:      47406 MSHR_MERGE:          0
cpu0->LLC RFO          ACCESS:       8636 HIT:        526 MISS:       8110 MSHR_MERGE:          0
cpu0->LLC PREFETCH     ACCESS:          0 HIT:          0 MISS:          0 MSHR_MERGE:          0
cpu0->LLC WRITE        ACCESS:      10682 HIT:      10505 MISS:        177 MSHR_MERGE:          0
cpu0->LLC TRANSLATION  ACCESS:       2183 HIT:         38 MISS:       2145 MSHR_MERGE:          0
cpu0->LLC PREFETCH REQUESTED:          0 ISSUED:          0 USEFUL:          0 USELESS:          0
cpu0->LLC AVERAGE MISS LATENCY: 171 cycles

DRAM Statistics

Channel 0 RQ ROW_BUFFER_HIT:       1808
  ROW_BUFFER_MISS:      55853
  AVG DBUS CONGESTED CYCLE: 9.577
Channel 0 WQ ROW_BUFFER_HIT:        347
  ROW_BUFFER_MISS:       1120
  FULL:          0
Channel 0 REFRESHES ISSUED:       3853
