[VMEM] WARNING: physical memory size is smaller than virtual memory size.

*** ChampSim Multicore Out-of-Order Simulator ***
Warmup Instructions: 50000000
Simulation Instructions: 100000000
Number of CPUs: 1
Page size: 4096

Initialize SIGNATURE TABLE
ST_SET: 1
ST_WAY: 256
ST_TAG_BIT: 16

Initialize PATTERN TABLE
PT_SET: 512
PT_WAY: 4
SIG_DELTA_BIT: 7
C_SIG_BIT: 4
C_DELTA_BIT: 4

Initialize PREFETCH FILTER
FILTER_SET: 1024
Off-chip DRAM Size: 16 GiB Channels: 1 Width: 64-bit Data Rate: 3205 MT/s
Heartbeat CPU 0 instructions: 10000001 cycles: 2536802 heartbeat IPC: 3.942 cumulative IPC: 3.942 (Simulation time: 00 hr 00 min 23 sec)
Heartbeat CPU 0 instructions: 20000004 cycles: 5064869 heartbeat IPC: 3.956 cumulative IPC: 3.949 (Simulation time: 00 hr 00 min 46 sec)
Heartbeat CPU 0 instructions: 30000004 cycles: 7582214 heartbeat IPC: 3.972 cumulative IPC: 3.957 (Simulation time: 00 hr 01 min 09 sec)
Heartbeat CPU 0 instructions: 40000007 cycles: 10097417 heartbeat IPC: 3.976 cumulative IPC: 3.961 (Simulation time: 00 hr 01 min 33 sec)
Warmup finished CPU 0 instructions: 50000003 cycles: 12613309 cumulative IPC: 3.964 (Simulation time: 00 hr 01 min 56 sec)
Warmup complete CPU 0 instructions: 50000003 cycles: 12613309 cumulative IPC: 3.964 (Simulation time: 00 hr 01 min 56 sec)
Heartbeat CPU 0 instructions: 50000007 cycles: 12613310 heartbeat IPC: 3.975 cumulative IPC: 4 (Simulation time: 00 hr 01 min 56 sec)
Heartbeat CPU 0 instructions: 60000008 cycles: 16170583 heartbeat IPC: 2.811 cumulative IPC: 2.811 (Simulation time: 00 hr 02 min 21 sec)
Heartbeat CPU 0 instructions: 70000009 cycles: 19727659 heartbeat IPC: 2.811 cumulative IPC: 2.811 (Simulation time: 00 hr 02 min 45 sec)
Heartbeat CPU 0 instructions: 80000010 cycles: 23277887 heartbeat IPC: 2.817 cumulative IPC: 2.813 (Simulation time: 00 hr 03 min 09 sec)
Heartbeat CPU 0 instructions: 90000011 cycles: 26839049 heartbeat IPC: 2.808 cumulative IPC: 2.812 (Simulation time: 00 hr 03 min 38 sec)
Heartbeat CPU 0 instructions: 100000015 cycles: 30382305 heartbeat IPC: 2.822 cumulative IPC: 2.814 (Simulation time: 00 hr 04 min 04 sec)
Heartbeat CPU 0 instructions: 110000016 cycles: 33894186 heartbeat IPC: 2.847 cumulative IPC: 2.819 (Simulation time: 00 hr 04 min 28 sec)
Heartbeat CPU 0 instructions: 120000017 cycles: 37397098 heartbeat IPC: 2.855 cumulative IPC: 2.824 (Simulation time: 00 hr 04 min 52 sec)
Heartbeat CPU 0 instructions: 130000018 cycles: 40902090 heartbeat IPC: 2.853 cumulative IPC: 2.828 (Simulation time: 00 hr 05 min 16 sec)
Heartbeat CPU 0 instructions: 140000020 cycles: 47794543 heartbeat IPC: 1.451 cumulative IPC: 2.558 (Simulation time: 00 hr 05 min 51 sec)
Simulation finished CPU 0 instructions: 100000003 cycles: 40302390 cumulative IPC: 2.481 (Simulation time: 00 hr 06 min 21 sec)
Simulation complete CPU 0 instructions: 100000003 cycles: 40302390 cumulative IPC: 2.481 (Simulation time: 00 hr 06 min 21 sec)

ChampSim completed all CPUs

=== Simulation ===
CPU 0 runs 625.x264_s-18B.champsimtrace.xz

Region of Interest Statistics

CPU 0 cumulative IPC: 2.481 instructions: 100000003 cycles: 40302390
CPU 0 Branch Prediction Accuracy: 87.37% MPKI: 6.356 Average ROB Occupancy at Mispredict: 61.88
Branch type MPKI
BRANCH_DIRECT_JUMP: 0.00129
BRANCH_INDIRECT: 0.0005
BRANCH_CONDITIONAL: 6.278
BRANCH_DIRECT_CALL: 0.00205
BRANCH_INDIRECT_CALL: 0.01099
BRANCH_RETURN: 0.06297

cpu0->cpu0_STLB TOTAL        ACCESS:      32365 HIT:      31130 MISS:       1235 MSHR_MERGE:          0
cpu0->cpu0_STLB LOAD         ACCESS:      32365 HIT:      31130 MISS:       1235 MSHR_MERGE:          0
cpu0->cpu0_STLB RFO          ACCESS:          0 HIT:          0 MISS:          0 MSHR_MERGE:          0
cpu0->cpu0_STLB PREFETCH     ACCESS:          0 HIT:          0 MISS:          0 MSHR_MERGE:          0
cpu0->cpu0_STLB WRITE        ACCESS:          0 HIT:          0 MISS:          0 MSHR_MERGE:          0
cpu0->cpu0_STLB TRANSLATION  ACCESS:          0 HIT:          0 MISS:          0 MSHR_MERGE:          0
cpu0->cpu0_STLB PREFETCH REQUESTED:          0 ISSUED:          0 USEFUL:          0 USELESS:          0
cpu0->cpu0_STLB AVERAGE MISS LATENCY: 802.8 cycles
cpu0->cpu0_L2C TOTAL        ACCESS:     487195 HIT:     127224 MISS:     359971 MSHR_MERGE:      14990
cpu0->cpu0_L2C LOAD         ACCESS:     106614 HIT:      61916 MISS:      44698 MSHR_MERGE:       1533
cpu0->cpu0_L2C RFO          ACCESS:       9586 HIT:       1197 MISS:       8389 MSHR_MERGE:          0
cpu0->cpu0_L2C PREFETCH     ACCESS:     353737 HIT:      57434 MISS:     296303 MSHR_MERGE:      13457
cpu0->cpu0_L2C WRITE        ACCESS:      15071 HIT:       6671 MISS:       8400 MSHR_MERGE:          0
cpu0->cpu0_L2C TRANSLATION  ACCESS:       2187 HIT:          6 MISS:       2181 MSHR_MERGE:          0
cpu0->cpu0_L2C PREFETCH REQUESTED:     362359 ISSUED:     353737 USEFUL:      23120 USELESS:        602
cpu0->cpu0_L2C AVERAGE MISS LATENCY: 70 cycles
cpu0->cpu0_L1I TOTAL        ACCESS:    8356542 HIT:    8289911 MISS:      66631 MSHR_MERGE:      23802
cpu0->cpu0_L1I LOAD         ACCESS:    8356542 HIT:    8289911 MISS:      66631 MSHR_MERGE:      23802
cpu0->cpu0_L1I RFO          ACCESS:          0 HIT:          0 MISS:          0 MSHR_MERGE:          0
cpu0->cpu0_L1I PREFETCH     ACCESS:          0 HIT:          0 MISS:          0 MSHR_MERGE:          0
cpu0->cpu0_L1I WRITE        ACCESS:          0 HIT:          0 MISS:          0 MSHR_MERGE:          0
cpu0->cpu0_L1I TRANSLATION  ACCESS:          0 HIT:          0 MISS:          0 MSHR_MERGE:          0
cpu0->cpu0_L1I PREFETCH REQUESTED:          0 ISSUED:          0 USEFUL:          0 USELESS:          0
cpu0->cpu0_L1I AVERAGE MISS LATENCY: 15.69 cycles
cpu0->cpu0_L1D TOTAL        ACCESS:   21237695 HIT:   21067163 MISS:     170532 MSHR_MERGE:      94974
cpu0->cpu0_L1D LOAD         ACCESS:   14670180 HIT:   14554508 MISS:     115672 MSHR_MERGE:      51887
cpu0->cpu0_L1D RFO          ACCESS:          0 HIT:          0 MISS:          0 MSHR_MERGE:          0
cpu0->cpu0_L1D PREFETCH     ACCESS:          0 HIT:          0 MISS:          0 MSHR_MERGE:          0
cpu0->cpu0_L1D WRITE        ACCESS:    6565020 HIT:    6512427 MISS:      52593 MSHR_MERGE:      43007
cpu0->cpu0_L1D TRANSLATION  ACCESS:       2495 HIT:        228 MISS:       2267 MSHR_MERGE:         80
cpu0->cpu0_L1D PREFETCH REQUESTED:          0 ISSUED:          0 USEFUL:          0 USELESS:          0
cpu0->cpu0_L1D AVERAGE MISS LATENCY: 62.44 cycles
cpu0->cpu0_ITLB TOTAL        ACCESS:    7486149 HIT:    7485108 MISS:       1041 MSHR_MERGE:        689
cpu0->cpu0_ITLB LOAD         ACCESS:    7486149 HIT:    7485108 MISS:       1041 MSHR_MERGE:        689
cpu0->cpu0_ITLB RFO          ACCESS:          0 HIT:          0 MISS:          0 MSHR_MERGE:          0
cpu0->cpu0_ITLB PREFETCH     ACCESS:          0 HIT:          0 MISS:          0 MSHR_MERGE:          0
cpu0->cpu0_ITLB WRITE        ACCESS:          0 HIT:          0 MISS:          0 MSHR_MERGE:          0
cpu0->cpu0_ITLB TRANSLATION  ACCESS:          0 HIT:          0 MISS:          0 MSHR_MERGE:          0
cpu0->cpu0_ITLB PREFETCH REQUESTED:          0 ISSUED:          0 USEFUL:          0 USELESS:          0
cpu0->cpu0_ITLB AVERAGE MISS LATENCY: 150.8 cycles
cpu0->cpu0_DTLB TOTAL        ACCESS:   20196764 HIT:   20130012 MISS:      66752 MSHR_MERGE:      34739
cpu0->cpu0_DTLB LOAD         ACCESS:   20196764 HIT:   20130012 MISS:      66752 MSHR_MERGE:      34739
cpu0->cpu0_DTLB RFO          ACCESS:          0 HIT:          0 MISS:          0 MSHR_MERGE:          0
cpu0->cpu0_DTLB PREFETCH     ACCESS:          0 HIT:          0 MISS:          0 MSHR_MERGE:          0
cpu0->cpu0_DTLB WRITE        ACCESS:          0 HIT:          0 MISS:          0 MSHR_MERGE:          0
cpu0->cpu0_DTLB TRANSLATION  ACCESS:          0 HIT:          0 MISS:          0 MSHR_MERGE:          0
cpu0->cpu0_DTLB PREFETCH REQUESTED:          0 ISSUED:          0 USEFUL:          0 USELESS:          0
cpu0->cpu0_DTLB AVERAGE MISS LATENCY: 34.41 cycles
cpu0->LLC TOTAL        ACCESS:     345513 HIT:     262469 MISS:      83044 MSHR_MERGE:      22009
cpu0->LLC LOAD         ACCESS:      43165 HIT:      34149 MISS:       9016 MSHR_MERGE:       1851
cpu0->LLC RFO          ACCESS:       8389 HIT:        322 MISS:       8067 MSHR_MERGE:          0
cpu0->LLC PREFETCH     ACCESS:     282684 HIT:     218998 MISS:      63686 MSHR_MERGE:      20158
cpu0->LLC WRITE        ACCESS:       9094 HIT:       8966 MISS:        128 MSHR_MERGE:          0
cpu0->LLC TRANSLATION  ACCESS:       2181 HIT:         34 MISS:       2147 MSHR_MERGE:          0
cpu0->LLC PREFETCH REQUESTED:          0 ISSUED:          0 USEFUL:          0 USELESS:          0
cpu0->LLC AVERAGE MISS LATENCY: 177.1 cycles

DRAM Statistics

Channel 0 RQ ROW_BUFFER_HIT:       2040
  ROW_BUFFER_MISS:      58867
  AVG DBUS CONGESTED CYCLE: 5.797
Channel 0 WQ ROW_BUFFER_HIT:        382
  ROW_BUFFER_MISS:       1402
  FULL:          0
Channel 0 REFRESHES ISSUED:       3358
