[VMEM] WARNING: physical memory size is smaller than virtual memory size.

*** ChampSim Multicore Out-of-Order Simulator ***
Warmup Instructions: 50000000
Simulation Instructions: 100000000
Number of CPUs: 1
Page size: 4096

Off-chip DRAM Size: 16 GiB Channels: 1 Width: 64-bit Data Rate: 3205 MT/s
Heartbeat CPU 0 instructions: 10000001 cycles: 2536789 heartbeat IPC: 3.942 cumulative IPC: 3.942 (Simulation time: 00 hr 00 min 23 sec)
Heartbeat CPU 0 instructions: 20000003 cycles: 5064849 heartbeat IPC: 3.956 cumulative IPC: 3.949 (Simulation time: 00 hr 00 min 47 sec)
Heartbeat CPU 0 instructions: 30000005 cycles: 7582204 heartbeat IPC: 3.972 cumulative IPC: 3.957 (Simulation time: 00 hr 01 min 10 sec)
Heartbeat CPU 0 instructions: 40000007 cycles: 10097412 heartbeat IPC: 3.976 cumulative IPC: 3.961 (Simulation time: 00 hr 01 min 33 sec)
Warmup finished CPU 0 instructions: 50000003 cycles: 12613329 cumulative IPC: 3.964 (Simulation time: 00 hr 01 min 56 sec)
Warmup complete CPU 0 instructions: 50000003 cycles: 12613329 cumulative IPC: 3.964 (Simulation time: 00 hr 01 min 56 sec)
Heartbeat CPU 0 instructions: 50000007 cycles: 12613330 heartbeat IPC: 3.975 cumulative IPC: 4 (Simulation time: 00 hr 01 min 56 sec)
Heartbeat CPU 0 instructions: 60000008 cycles: 16474047 heartbeat IPC: 2.59 cumulative IPC: 2.59 (Simulation time: 00 hr 02 min 21 sec)
Heartbeat CPU 0 instructions: 70000009 cycles: 20339367 heartbeat IPC: 2.587 cumulative IPC: 2.589 (Simulation time: 00 hr 02 min 47 sec)
Heartbeat CPU 0 instructions: 80000010 cycles: 24201595 heartbeat IPC: 2.589 cumulative IPC: 2.589 (Simulation time: 00 hr 03 min 12 sec)
Heartbeat CPU 0 instructions: 90000011 cycles: 28076513 heartbeat IPC: 2.581 cumulative IPC: 2.587 (Simulation time: 00 hr 03 min 38 sec)
Heartbeat CPU 0 instructions: 100000015 cycles: 31810577 heartbeat IPC: 2.678 cumulative IPC: 2.605 (Simulation time: 00 hr 04 min 03 sec)
Heartbeat CPU 0 instructions: 110000016 cycles: 35391269 heartbeat IPC: 2.793 cumulative IPC: 2.634 (Simulation time: 00 hr 04 min 27 sec)
Heartbeat CPU 0 instructions: 120000017 cycles: 38963427 heartbeat IPC: 2.799 cumulative IPC: 2.657 (Simulation time: 00 hr 04 min 51 sec)
Heartbeat CPU 0 instructions: 130000018 cycles: 42542548 heartbeat IPC: 2.794 cumulative IPC: 2.673 (Simulation time: 00 hr 05 min 15 sec)
Heartbeat CPU 0 instructions: 140000020 cycles: 52300074 heartbeat IPC: 1.025 cumulative IPC: 2.268 (Simulation time: 00 hr 05 min 56 sec)
Simulation finished CPU 0 instructions: 100000003 cycles: 45759510 cumulative IPC: 2.185 (Simulation time: 00 hr 06 min 29 sec)
Simulation complete CPU 0 instructions: 100000003 cycles: 45759510 cumulative IPC: 2.185 (Simulation time: 00 hr 06 min 29 sec)

ChampSim completed all CPUs

=== Simulation ===
CPU 0 runs 625.x264_s-18B.champsimtrace.xz

Region of Interest Statistics

CPU 0 cumulative IPC: 2.185 instructions: 100000003 cycles: 45759510
CPU 0 Branch Prediction Accuracy: 87.37% MPKI: 6.356 Average ROB Occupancy at Mispredict: 62.14
Branch type MPKI
BRANCH_DIRECT_JUMP: 0.00129
BRANCH_INDIRECT: 0.0005
BRANCH_CONDITIONAL: 6.278
BRANCH_DIRECT_CALL: 0.00205
BRANCH_INDIRECT_CALL: 0.01099
BRANCH_RETURN: 0.06297

cpu0->cpu0_STLB TOTAL        ACCESS:      32366 HIT:      31131 MISS:       1235 MSHR_MERGE:          0
cpu0->cpu0_STLB LOAD         ACCESS:      32366 HIT:      31131 MISS:       1235 MSHR_MERGE:          0
cpu0->cpu0_STLB RFO          ACCESS:          0 HIT:          0 MISS:          0 MSHR_MERGE:          0
cpu0->cpu0_STLB PREFETCH     ACCESS:          0 HIT:          0 MISS:          0 MSHR_MERGE:          0
cpu0->cpu0_STLB WRITE        ACCESS:          0 HIT:          0 MISS:          0 MSHR_MERGE:          0
cpu0->cpu0_STLB TRANSLATION  ACCESS:          0 HIT:          0 MISS:          0 MSHR_MERGE:          0
cpu0->cpu0_STLB PREFETCH REQUESTED:          0 ISSUED:          0 USEFUL:          0 USELESS:          0
cpu0->cpu0_STLB AVERAGE MISS LATENCY: 784 cycles
cpu0->cpu0_L2C TOTAL        ACCESS:     133454 HIT:      56352 MISS:      77102 MSHR_MERGE:          0
cpu0->cpu0_L2C LOAD         ACCESS:     106614 HIT:      46355 MISS:      60259 MSHR_MERGE:          0
cpu0->cpu0_L2C RFO          ACCESS:       9580 HIT:       1259 MISS:       8321 MSHR_MERGE:          0
cpu0->cpu0_L2C PREFETCH     ACCESS:          0 HIT:          0 MISS:          0 MSHR_MERGE:          0
cpu0->cpu0_L2C WRITE        ACCESS:      15073 HIT:       8721 MISS:       6352 MSHR_MERGE:          0
cpu0->cpu0_L2C TRANSLATION  ACCESS:       2187 HIT:         17 MISS:       2170 MSHR_MERGE:          0
cpu0->cpu0_L2C PREFETCH REQUESTED:          0 ISSUED:          0 USEFUL:          0 USELESS:          0
cpu0->cpu0_L2C AVERAGE MISS LATENCY: 138.7 cycles
cpu0->cpu0_L1I TOTAL        ACCESS:    8378930 HIT:    8312292 MISS:      66638 MSHR_MERGE:      23821
cpu0->cpu0_L1I LOAD         ACCESS:    8378930 HIT:    8312292 MISS:      66638 MSHR_MERGE:      23821
cpu0->cpu0_L1I RFO          ACCESS:          0 HIT:          0 MISS:          0 MSHR_MERGE:          0
cpu0->cpu0_L1I PREFETCH     ACCESS:          0 HIT:          0 MISS:          0 MSHR_MERGE:          0
cpu0->cpu0_L1I WRITE        ACCESS:          0 HIT:          0 MISS:          0 MSHR_MERGE:          0
cpu0->cpu0_L1I TRANSLATION  ACCESS:          0 HIT:          0 MISS:          0 MSHR_MERGE:          0
cpu0->cpu0_L1I PREFETCH REQUESTED:          0 ISSUED:          0 USEFUL:          0 USELESS:          0
cpu0->cpu0_L1I AVERAGE MISS LATENCY: 17.77 cycles
cpu0->cpu0_L1D TOTAL        ACCESS:   21234469 HIT:   21067979 MISS:     166490 MSHR_MERGE:      90925
cpu0->cpu0_L1D LOAD         ACCESS:   14666886 HIT:   14550337 MISS:     116549 MSHR_MERGE:      52752
cpu0->cpu0_L1D RFO          ACCESS:          0 HIT:          0 MISS:          0 MSHR_MERGE:          0
cpu0->cpu0_L1D PREFETCH     ACCESS:          0 HIT:          0 MISS:          0 MSHR_MERGE:          0
cpu0->cpu0_L1D WRITE        ACCESS:    6565087 HIT:    6517410 MISS:      47677 MSHR_MERGE:      38096
cpu0->cpu0_L1D TRANSLATION  ACCESS:       2496 HIT:        232 MISS:       2264 MSHR_MERGE:         77
cpu0->cpu0_L1D PREFETCH REQUESTED:          0 ISSUED:          0 USEFUL:          0 USELESS:          0
cpu0->cpu0_L1D AVERAGE MISS LATENCY: 144.1 cycles
cpu0->cpu0_ITLB TOTAL        ACCESS:    7517270 HIT:    7516224 MISS:       1046 MSHR_MERGE:        694
cpu0->cpu0_ITLB LOAD         ACCESS:    7517270 HIT:    7516224 MISS:       1046 MSHR_MERGE:        694
cpu0->cpu0_ITLB RFO          ACCESS:          0 HIT:          0 MISS:          0 MSHR_MERGE:          0
cpu0->cpu0_ITLB PREFETCH     ACCESS:          0 HIT:          0 MISS:          0 MSHR_MERGE:          0
cpu0->cpu0_ITLB WRITE        ACCESS:          0 HIT:          0 MISS:          0 MSHR_MERGE:          0
cpu0->cpu0_ITLB TRANSLATION  ACCESS:          0 HIT:          0 MISS:          0 MSHR_MERGE:          0
cpu0->cpu0_ITLB PREFETCH REQUESTED:          0 ISSUED:          0 USEFUL:          0 USELESS:          0
cpu0->cpu0_ITLB AVERAGE MISS LATENCY: 152.1 cycles
cpu0->cpu0_DTLB TOTAL        ACCESS:   20193722 HIT:   20127006 MISS:      66716 MSHR_MERGE:      34702
cpu0->cpu0_DTLB LOAD         ACCESS:   20193722 HIT:   20127006 MISS:      66716 MSHR_MERGE:      34702
cpu0->cpu0_DTLB RFO          ACCESS:          0 HIT:          0 MISS:          0 MSHR_MERGE:          0
cpu0->cpu0_DTLB PREFETCH     ACCESS:          0 HIT:          0 MISS:          0 MSHR_MERGE:          0
cpu0->cpu0_DTLB WRITE        ACCESS:          0 HIT:          0 MISS:          0 MSHR_MERGE:          0
cpu0->cpu0_DTLB TRANSLATION  ACCESS:          0 HIT:          0 MISS:          0 MSHR_MERGE:          0
cpu0->cpu0_DTLB PREFETCH REQUESTED:          0 ISSUED:          0 USEFUL:          0 USELESS:          0
cpu0->cpu0_DTLB AVERAGE MISS LATENCY: 33.66 cycles
cpu0->LLC TOTAL        ACCESS:      77227 HIT:      21418 MISS:      55809 MSHR_MERGE:          0
cpu0->LLC LOAD         ACCESS:      60259 HIT:      14874 MISS:      45385 MSHR_MERGE:          0
cpu0->LLC RFO          ACCESS:       8321 HIT:        211 MISS:       8110 MSHR_MERGE:          0
cpu0->LLC PREFETCH     ACCESS:          0 HIT:          0 MISS:          0 MSHR_MERGE:          0
cpu0->LLC WRITE        ACCESS:       6477 HIT:       6310 MISS:        167 MSHR_MERGE:          0
cpu0->LLC TRANSLATION  ACCESS:       2170 HIT:         23 MISS:       2147 MSHR_MERGE:          0
cpu0->LLC PREFETCH REQUESTED:          0 ISSUED:          0 USEFUL:          0 USELESS:          0
cpu0->LLC AVERAGE MISS LATENCY: 171.1 cycles

DRAM Statistics

Channel 0 RQ ROW_BUFFER_HIT:       1704
  ROW_BUFFER_MISS:      53938
  AVG DBUS CONGESTED CYCLE: 7.918
Channel 0 WQ ROW_BUFFER_HIT:        207
  ROW_BUFFER_MISS:        572
  FULL:          0
Channel 0 REFRESHES ISSUED:       3813
